REMARK  3 active torsions:
REMARK  status: ('A' for Active; 'I' for Inactive)
REMARK    1  A    between atoms: C3_4  and  C4_5 
REMARK    2  A    between atoms: C5_7  and  N3_8 
REMARK    3  A    between atoms: C6_10  and  C7_11 
ROOT
HETATM    1  C4  UNK     1       5.279   2.430   0.010  1.00  0.00     0.132 A 
HETATM    2  N2  UNK     1       5.437   3.245   1.117  1.00  0.00    -0.060 NA
HETATM    3  C5  UNK     1       6.183   4.238   0.718  1.00  0.00     0.699 A 
HETATM    4  N4  UNK     1       6.539   4.098  -0.593  1.00  0.00    -0.187 N 
HETATM    5  C6  UNK     1       6.000   2.924  -1.079  1.00  0.00     0.091 A 
HETATM    6  H6  UNK     1       7.135   4.734  -1.099  1.00  0.00     0.184 HD
ENDROOT
BRANCH   5   7
HETATM    7  C7  UNK     1       6.231   2.437  -2.447  1.00  0.00    -0.004 A 
HETATM    8  C8  UNK     1       6.287   1.068  -2.715  1.00  0.00     0.016 A 
HETATM    9  C9  UNK     1       6.308   0.592  -4.026  1.00  0.00     0.035 A 
HETATM   10  C10 UNK     1       6.361   1.459  -5.100  1.00  0.00     0.085 A 
HETATM   11  N5  UNK     1       6.352   0.962  -6.349  1.00  0.00    -0.257 NA
HETATM   12  C13 UNK     1       6.437   2.853  -4.845  1.00  0.00     0.086 A 
HETATM   13  C11 UNK     1       6.449   1.863  -7.348  1.00  0.00     0.136 A 
HETATM   14  C12 UNK     1       6.578   3.215  -7.108  1.00  0.00     0.136 A 
HETATM   15  N6  UNK     1       6.564   3.734  -5.859  1.00  0.00    -0.257 NA
HETATM   16  C14 UNK     1       6.355   3.315  -3.532  1.00  0.00     0.048 A 
ENDBRANCH   5   7
BRANCH   1  17
HETATM   17  C3  UNK     1       4.482   1.207   0.062  1.00  0.00     0.089 A 
HETATM   18  N1  UNK     1       3.886   0.798  -1.089  1.00  0.00    -0.248 NA
HETATM   19  C2  UNK     1       3.261  -0.409  -1.093  1.00  0.00     0.070 A 
HETATM   20  C1  UNK     1       2.732  -0.901  -2.405  1.00  0.00     0.074 C 
HETATM   21  C17 UNK     1       3.171  -1.198   0.045  1.00  0.00     0.140 A 
HETATM   22  C16 UNK     1       3.744  -0.755   1.227  1.00  0.00     0.047 A 
HETATM   23  F1  UNK     1       2.566  -2.393   0.005  1.00  0.00    -0.204 F 
HETATM   24  C15 UNK     1       4.414   0.468   1.239  1.00  0.00     0.037 A 
ENDBRANCH   1  17
BRANCH   3  25
HETATM   25  N3  UNK     1       6.591   5.285   1.443  1.00  0.00    -0.233 N 
HETATM   26  H4  UNK     1       6.124   5.407   2.338  1.00  0.00     0.174 HD
HETATM   27  H5  UNK     1       6.871   6.158   1.015  1.00  0.00     0.174 HD
ENDBRANCH   3  25
TORSDOF 3
