REMARK  2 active torsions:
REMARK  status: ('A' for Active; 'I' for Inactive)
REMARK       I    between atoms: C2_2  and  N1_4 
REMARK    1  A    between atoms: N1_4  and  C3_5 
REMARK    2  A    between atoms: C4_7  and  C5_8 
ROOT
HETATM    1  C3  UNK     1       4.770   1.166   0.675  1.00  0.00     0.708 A 
HETATM    2  N2  UNK     1       5.519   0.874  -0.358  1.00  0.00    -0.060 NA
HETATM    3  C4  UNK     1       6.821   1.059   0.035  1.00  0.00     0.132 A 
HETATM    4  C11 UNK     1       6.871   1.454   1.358  1.00  0.00     0.092 A 
HETATM    5  C12 UNK     1       7.928   1.591   2.290  1.00  0.00     0.011 A 
HETATM    6  C13 UNK     1       8.504   0.442   2.998  1.00  0.00     0.019 A 
HETATM    7  C14 UNK     1       9.646   0.531   3.705  1.00  0.00     0.053 A 
HETATM    8  C15 UNK     1      10.305   1.782   3.807  1.00  0.00     0.151 A 
HETATM    9  N4  UNK     1      11.403   2.148   4.430  1.00  0.00    -0.221 NA
HETATM   10  C16 UNK     1      11.484   3.476   4.138  1.00  0.00     0.258 A 
HETATM   11  N5  UNK     1      10.508   3.967   3.373  1.00  0.00    -0.160 NA
HETATM   12  N6  UNK     1       9.735   2.876   3.146  1.00  0.00    -0.225 N 
HETATM   13  C17 UNK     1       8.568   2.774   2.389  1.00  0.00     0.134 A 
HETATM   14  N7  UNK     1       5.552   1.581   1.732  1.00  0.00    -0.186 N 
HETATM   15  H14 UNK     1       5.219   1.868   2.639  1.00  0.00     0.184 HD
ENDROOT
BRANCH   3  16
HETATM   16  C5  UNK     1       7.959   0.764  -0.816  1.00  0.00     0.089 A 
HETATM   17  C6  UNK     1       7.869  -0.246  -1.768  1.00  0.00     0.037 A 
HETATM   18  C7  UNK     1       8.975  -0.498  -2.576  1.00  0.00     0.047 A 
HETATM   19  C8  UNK     1      10.118   0.271  -2.411  1.00  0.00     0.140 A 
HETATM   20  F1  UNK     1      11.180   0.048  -3.195  1.00  0.00    -0.204 F 
HETATM   21  C9  UNK     1      10.145   1.257  -1.430  1.00  0.00     0.070 A 
HETATM   22  C10 UNK     1      11.361   2.098  -1.205  1.00  0.00     0.074 C 
HETATM   23  N3  UNK     1       9.079   1.511  -0.627  1.00  0.00    -0.248 NA
ENDBRANCH   3  16
BRANCH   1  24
HETATM   24  N1  UNK     1       3.403   1.054   0.762  1.00  0.00    -0.158 N 
HETATM   25  C2  UNK     1       2.657   0.579  -0.311  1.00  0.00     0.232 C 
HETATM   26  C1  UNK     1       1.189   0.490   0.006  1.00  0.00     0.118 C 
HETATM   27  O1  UNK     1       3.066   0.257  -1.424  1.00  0.00    -0.273 OA
HETATM   28  H4  UNK     1       2.937   1.278   1.628  1.00  0.00     0.187 HD
ENDBRANCH   1  24
TORSDOF 2
