MODEL 1
REMARK VINA RESULT:     -10.9      0.000      0.000
REMARK  2 active torsions:
REMARK  status: ('A' for Active; 'I' for Inactive)
REMARK    1  A    between atoms: C5_6  and  C6_7 
REMARK    2  A    between atoms: C8_11  and  C9_12 
ROOT
HETATM    1  C6  UNK     1      14.783  66.363   6.263  1.00  0.00     0.091 A 
HETATM    2  N1  UNK     1      14.444  66.426   7.593  1.00  0.00    -0.275 N 
HETATM    3  N2  UNK     1      15.004  67.449   8.256  1.00  0.00    -0.186 NA
HETATM    4  C7  UNK     1      15.641  68.120   7.297  1.00  0.00     0.153 A 
HETATM    5  C8  UNK     1      15.567  67.492   6.026  1.00  0.00     0.025 A 
HETATM    6  H4  UNK     1      13.823  65.797   8.092  1.00  0.00     0.189 HD
ENDROOT
BRANCH   5   7
HETATM    7  C9  UNK     1      16.075  67.937   4.723  1.00  0.00    -0.008 A 
HETATM    8  C10 UNK     1      15.172  68.034   3.656  1.00  0.00     0.032 A 
HETATM    9  C11 UNK     1      15.639  68.378   2.407  1.00  0.00     0.118 A 
HETATM   10  N3  UNK     1      16.913  68.709   2.157  1.00  0.00    -0.260 NA
HETATM   11  C12 UNK     1      17.780  68.710   3.183  1.00  0.00     0.067 A 
HETATM   12  C13 UNK     1      19.073  69.134   2.904  1.00  0.00     0.032 A 
HETATM   13  C17 UNK     1      17.438  68.311   4.498  1.00  0.00     0.004 A 
HETATM   14  C14 UNK     1      20.053  69.200   3.888  1.00  0.00     0.002 A 
HETATM   15  C15 UNK     1      19.756  68.791   5.175  1.00  0.00     0.001 A 
HETATM   16  C16 UNK     1      18.472  68.328   5.474  1.00  0.00     0.014 A 
ENDBRANCH   5   7
BRANCH   1  17
HETATM   17  C5  UNK     1      14.233  65.306   5.424  1.00  0.00     0.087 A 
HETATM   18  C4  UNK     1      14.981  64.638   4.463  1.00  0.00     0.034 A 
HETATM   19  C3  UNK     1      14.322  63.789   3.580  1.00  0.00     0.005 A 
HETATM   20  C2  UNK     1      12.949  63.608   3.709  1.00  0.00     0.039 A 
HETATM   21  C1  UNK     1      12.294  64.269   4.737  1.00  0.00     0.103 A 
HETATM   22 BR1  UNK     1      10.424  64.021   4.939  1.00  0.00    -0.029 Br
HETATM   23  N4  UNK     1      12.909  65.107   5.601  1.00  0.00    -0.239 NA
ENDBRANCH   1  17
TORSDOF 2
ENDMDL
MODEL 2
REMARK VINA RESULT:     -10.7      1.119      2.309
REMARK  2 active torsions:
REMARK  status: ('A' for Active; 'I' for Inactive)
REMARK    1  A    between atoms: C5_6  and  C6_7 
REMARK    2  A    between atoms: C8_11  and  C9_12 
ROOT
HETATM    1  C6  UNK     1      14.965  66.577   6.857  1.00  0.00     0.091 A 
HETATM    2  N1  UNK     1      14.140  66.850   7.921  1.00  0.00    -0.275 N 
HETATM    3  N2  UNK     1      14.583  67.829   8.724  1.00  0.00    -0.186 NA
HETATM    4  C7  UNK     1      15.676  68.264   8.098  1.00  0.00     0.153 A 
HETATM    5  C8  UNK     1      15.992  67.517   6.933  1.00  0.00     0.025 A 
HETATM    6  H4  UNK     1      13.255  66.401   8.135  1.00  0.00     0.189 HD
ENDROOT
BRANCH   5   7
HETATM    7  C9  UNK     1      17.063  67.714   5.948  1.00  0.00    -0.008 A 
HETATM    8  C10 UNK     1      18.387  67.506   6.357  1.00  0.00     0.032 A 
HETATM    9  C11 UNK     1      19.413  67.757   5.472  1.00  0.00     0.118 A 
HETATM   10  N3  UNK     1      19.219  68.117   4.196  1.00  0.00    -0.260 NA
HETATM   11  C12 UNK     1      17.956  68.235   3.756  1.00  0.00     0.067 A 
HETATM   12  C13 UNK     1      17.792  68.532   2.409  1.00  0.00     0.032 A 
HETATM   13  C17 UNK     1      16.819  68.071   4.585  1.00  0.00     0.004 A 
HETATM   14  C14 UNK     1      16.533  68.658   1.832  1.00  0.00     0.002 A 
HETATM   15  C15 UNK     1      15.405  68.529   2.622  1.00  0.00     0.001 A 
HETATM   16  C16 UNK     1      15.543  68.264   3.987  1.00  0.00     0.014 A 
ENDBRANCH   5   7
BRANCH   1  17
HETATM   17  C5  UNK     1      14.594  65.543   5.899  1.00  0.00     0.087 A 
HETATM   18  C4  UNK     1      15.505  64.957   5.030  1.00  0.00     0.034 A 
HETATM   19  C3  UNK     1      15.023  64.128   4.022  1.00  0.00     0.005 A 
HETATM   20  C2  UNK     1      13.656  63.884   3.938  1.00  0.00     0.039 A 
HETATM   21  C1  UNK     1      12.828  64.464   4.887  1.00  0.00     0.103 A 
HETATM   22 BR1  UNK     1      10.963  64.129   4.800  1.00  0.00    -0.029 Br
HETATM   23  N4  UNK     1      13.269  65.281   5.870  1.00  0.00    -0.239 NA
ENDBRANCH   1  17
TORSDOF 2
ENDMDL
MODEL 3
REMARK VINA RESULT:      -9.5      2.659      4.311
REMARK  2 active torsions:
REMARK  status: ('A' for Active; 'I' for Inactive)
REMARK    1  A    between atoms: C5_6  and  C6_7 
REMARK    2  A    between atoms: C8_11  and  C9_12 
ROOT
HETATM    1  C6  UNK     1      15.603  66.559   5.824  1.00  0.00     0.091 A 
HETATM    2  N1  UNK     1      15.115  65.321   6.164  1.00  0.00    -0.275 N 
HETATM    3  N2  UNK     1      14.728  64.575   5.120  1.00  0.00    -0.186 NA
HETATM    4  C7  UNK     1      15.073  65.320   4.070  1.00  0.00     0.153 A 
HETATM    5  C8  UNK     1      15.607  66.585   4.429  1.00  0.00     0.025 A 
HETATM    6  H4  UNK     1      15.036  64.935   7.100  1.00  0.00     0.189 HD
ENDROOT
BRANCH   5   7
HETATM    7  C9  UNK     1      16.154  67.653   3.584  1.00  0.00    -0.008 A 
HETATM    8  C10 UNK     1      15.301  68.268   2.657  1.00  0.00     0.032 A 
HETATM    9  C11 UNK     1      15.809  69.220   1.802  1.00  0.00     0.118 A 
HETATM   10  N3  UNK     1      17.073  69.661   1.851  1.00  0.00    -0.260 NA
HETATM   11  C12 UNK     1      17.886  69.151   2.791  1.00  0.00     0.067 A 
HETATM   12  C13 UNK     1      19.165  69.689   2.865  1.00  0.00     0.032 A 
HETATM   13  C17 UNK     1      17.502  68.120   3.683  1.00  0.00     0.004 A 
HETATM   14  C14 UNK     1      20.089  69.257   3.810  1.00  0.00     0.002 A 
HETATM   15  C15 UNK     1      19.752  68.234   4.677  1.00  0.00     0.001 A 
HETATM   16  C16 UNK     1      18.483  67.653   4.600  1.00  0.00     0.014 A 
ENDBRANCH   5   7
BRANCH   1  17
HETATM   17  C5  UNK     1      16.070  67.466   6.865  1.00  0.00     0.087 A 
HETATM   18  C4  UNK     1      15.451  68.677   7.145  1.00  0.00     0.034 A 
HETATM   19  C3  UNK     1      16.082  69.560   8.015  1.00  0.00     0.005 A 
HETATM   20  C2  UNK     1      17.289  69.191   8.601  1.00  0.00     0.039 A 
HETATM   21  C1  UNK     1      17.801  67.936   8.309  1.00  0.00     0.103 A 
HETATM   22 BR1  UNK     1      19.436  67.407   9.114  1.00  0.00    -0.029 Br
HETATM   23  N4  UNK     1      17.214  67.064   7.461  1.00  0.00    -0.239 NA
ENDBRANCH   1  17
TORSDOF 2
ENDMDL
MODEL 4
REMARK VINA RESULT:      -9.0      3.294      6.498
REMARK  2 active torsions:
REMARK  status: ('A' for Active; 'I' for Inactive)
REMARK    1  A    between atoms: C5_6  and  C6_7 
REMARK    2  A    between atoms: C8_11  and  C9_12 
ROOT
HETATM    1  C6  UNK     1      18.061  68.403   4.138  1.00  0.00     0.091 A 
HETATM    2  N1  UNK     1      18.318  69.179   3.034  1.00  0.00    -0.275 N 
HETATM    3  N2  UNK     1      17.300  69.256   2.165  1.00  0.00    -0.186 NA
HETATM    4  C7  UNK     1      16.324  68.590   2.781  1.00  0.00     0.153 A 
HETATM    5  C8  UNK     1      16.728  68.009   4.011  1.00  0.00     0.025 A 
HETATM    6  H4  UNK     1      19.175  69.686   2.835  1.00  0.00     0.189 HD
ENDROOT
BRANCH   5   7
HETATM    7  C9  UNK     1      15.946  67.263   5.005  1.00  0.00    -0.008 A 
HETATM    8  C10 UNK     1      15.442  66.006   4.644  1.00  0.00     0.032 A 
HETATM    9  C11 UNK     1      14.644  65.320   5.532  1.00  0.00     0.118 A 
HETATM   10  N3  UNK     1      14.377  65.750   6.773  1.00  0.00    -0.260 NA
HETATM   11  C12 UNK     1      14.922  66.910   7.173  1.00  0.00     0.067 A 
HETATM   12  C13 UNK     1      14.690  67.285   8.490  1.00  0.00     0.032 A 
HETATM   13  C17 UNK     1      15.705  67.739   6.332  1.00  0.00     0.004 A 
HETATM   14  C14 UNK     1      15.220  68.454   9.026  1.00  0.00     0.002 A 
HETATM   15  C15 UNK     1      15.965  69.296   8.221  1.00  0.00     0.001 A 
HETATM   16  C16 UNK     1      16.185  68.959   6.883  1.00  0.00     0.014 A 
ENDBRANCH   5   7
BRANCH   1  17
HETATM   17  C5  UNK     1      19.079  68.247   5.168  1.00  0.00     0.087 A 
HETATM   18  C4  UNK     1      19.071  67.204   6.087  1.00  0.00     0.034 A 
HETATM   19  C3  UNK     1      19.967  67.249   7.150  1.00  0.00     0.005 A 
HETATM   20  C2  UNK     1      20.862  68.310   7.241  1.00  0.00     0.039 A 
HETATM   21  C1  UNK     1      20.839  69.273   6.244  1.00  0.00     0.103 A 
HETATM   22 BR1  UNK     1      22.064  70.718   6.341  1.00  0.00    -0.029 Br
HETATM   23  N4  UNK     1      19.972  69.259   5.206  1.00  0.00    -0.239 NA
ENDBRANCH   1  17
TORSDOF 2
ENDMDL
MODEL 5
REMARK VINA RESULT:      -8.8      3.651      6.859
REMARK  2 active torsions:
REMARK  status: ('A' for Active; 'I' for Inactive)
REMARK    1  A    between atoms: C5_6  and  C6_7 
REMARK    2  A    between atoms: C8_11  and  C9_12 
ROOT
HETATM    1  C6  UNK     1      18.782  68.432   5.165  1.00  0.00     0.091 A 
HETATM    2  N1  UNK     1      19.353  69.122   4.124  1.00  0.00    -0.275 N 
HETATM    3  N2  UNK     1      18.523  69.356   3.097  1.00  0.00    -0.186 NA
HETATM    4  C7  UNK     1      17.355  68.889   3.538  1.00  0.00     0.153 A 
HETATM    5  C8  UNK     1      17.441  68.277   4.815  1.00  0.00     0.025 A 
HETATM    6  H4  UNK     1      20.308  69.465   4.073  1.00  0.00     0.189 HD
ENDROOT
BRANCH   5   7
HETATM    7  C9  UNK     1      16.385  67.706   5.660  1.00  0.00    -0.008 A 
HETATM    8  C10 UNK     1      16.093  68.338   6.876  1.00  0.00     0.032 A 
HETATM    9  C11 UNK     1      15.158  67.779   7.719  1.00  0.00     0.118 A 
HETATM   10  N3  UNK     1      14.439  66.691   7.411  1.00  0.00    -0.260 NA
HETATM   11  C12 UNK     1      14.638  66.119   6.213  1.00  0.00     0.067 A 
HETATM   12  C13 UNK     1      13.820  65.042   5.894  1.00  0.00     0.032 A 
HETATM   13  C17 UNK     1      15.616  66.558   5.287  1.00  0.00     0.004 A 
HETATM   14  C14 UNK     1      13.916  64.381   4.675  1.00  0.00     0.002 A 
HETATM   15  C15 UNK     1      14.879  64.771   3.762  1.00  0.00     0.001 A 
HETATM   16  C16 UNK     1      15.738  65.830   4.072  1.00  0.00     0.014 A 
ENDBRANCH   5   7
BRANCH   1  17
HETATM   17  C5  UNK     1      19.572  68.122   6.350  1.00  0.00     0.087 A 
HETATM   18  C4  UNK     1      19.309  67.032   7.170  1.00  0.00     0.034 A 
HETATM   19  C3  UNK     1      19.988  66.932   8.380  1.00  0.00     0.005 A 
HETATM   20  C2  UNK     1      20.929  67.901   8.714  1.00  0.00     0.039 A 
HETATM   21  C1  UNK     1      21.169  68.920   7.805  1.00  0.00     0.103 A 
HETATM   22 BR1  UNK     1      22.462  70.241   8.234  1.00  0.00    -0.029 Br
HETATM   23  N4  UNK     1      20.517  69.047   6.628  1.00  0.00    -0.239 NA
ENDBRANCH   1  17
TORSDOF 2
ENDMDL
MODEL 6
REMARK VINA RESULT:      -8.8      3.022      5.157
REMARK  2 active torsions:
REMARK  status: ('A' for Active; 'I' for Inactive)
REMARK    1  A    between atoms: C5_6  and  C6_7 
REMARK    2  A    between atoms: C8_11  and  C9_12 
ROOT
HETATM    1  C6  UNK     1      15.717  66.609   4.545  1.00  0.00     0.091 A 
HETATM    2  N1  UNK     1      15.106  65.523   3.966  1.00  0.00    -0.275 N 
HETATM    3  N2  UNK     1      14.722  64.578   4.836  1.00  0.00    -0.186 NA
HETATM    4  C7  UNK     1      15.006  65.121   6.019  1.00  0.00     0.153 A 
HETATM    5  C8  UNK     1      15.650  66.382   5.920  1.00  0.00     0.025 A 
HETATM    6  H4  UNK     1      14.918  65.388   2.977  1.00  0.00     0.189 HD
ENDROOT
BRANCH   5   7
HETATM    7  C9  UNK     1      16.063  67.316   6.974  1.00  0.00    -0.008 A 
HETATM    8  C10 UNK     1      15.067  67.916   7.757  1.00  0.00     0.032 A 
HETATM    9  C11 UNK     1      15.426  68.851   8.702  1.00  0.00     0.118 A 
HETATM   10  N3  UNK     1      16.696  69.174   8.981  1.00  0.00    -0.260 NA
HETATM   11  C12 UNK     1      17.672  68.546   8.306  1.00  0.00     0.067 A 
HETATM   12  C13 UNK     1      18.977  68.846   8.676  1.00  0.00     0.032 A 
HETATM   13  C17 UNK     1      17.431  67.616   7.265  1.00  0.00     0.004 A 
HETATM   14  C14 UNK     1      20.071  68.244   8.065  1.00  0.00     0.002 A 
HETATM   15  C15 UNK     1      19.868  67.352   7.028  1.00  0.00     0.001 A 
HETATM   16  C16 UNK     1      18.566  67.059   6.613  1.00  0.00     0.014 A 
ENDBRANCH   5   7
BRANCH   1  17
HETATM   17  C5  UNK     1      16.172  67.715   3.712  1.00  0.00     0.087 A 
HETATM   18  C4  UNK     1      15.369  68.318   2.752  1.00  0.00     0.034 A 
HETATM   19  C3  UNK     1      15.951  69.227   1.875  1.00  0.00     0.005 A 
HETATM   20  C2  UNK     1      17.302  69.530   2.008  1.00  0.00     0.039 A 
HETATM   21  C1  UNK     1      18.011  68.925   3.035  1.00  0.00     0.103 A 
HETATM   22 BR1  UNK     1      19.851  69.339   3.244  1.00  0.00    -0.029 Br
HETATM   23  N4  UNK     1      17.473  68.031   3.894  1.00  0.00    -0.239 NA
ENDBRANCH   1  17
TORSDOF 2
ENDMDL
MODEL 7
REMARK VINA RESULT:      -8.6      3.519      7.338
REMARK  2 active torsions:
REMARK  status: ('A' for Active; 'I' for Inactive)
REMARK    1  A    between atoms: C5_6  and  C6_7 
REMARK    2  A    between atoms: C8_11  and  C9_12 
ROOT
HETATM    1  C6  UNK     1      18.642  69.201   3.059  1.00  0.00     0.091 A 
HETATM    2  N1  UNK     1      18.449  69.716   1.801  1.00  0.00    -0.275 N 
HETATM    3  N2  UNK     1      17.221  69.510   1.303  1.00  0.00    -0.186 NA
HETATM    4  C7  UNK     1      16.576  68.933   2.317  1.00  0.00     0.153 A 
HETATM    5  C8  UNK     1      17.403  68.687   3.443  1.00  0.00     0.025 A 
HETATM    6  H4  UNK     1      19.127  70.227   1.243  1.00  0.00     0.189 HD
ENDROOT
BRANCH   5   7
HETATM    7  C9  UNK     1      17.064  68.135   4.760  1.00  0.00    -0.008 A 
HETATM    8  C10 UNK     1      17.579  68.770   5.899  1.00  0.00     0.032 A 
HETATM    9  C11 UNK     1      17.336  68.227   7.141  1.00  0.00     0.118 A 
HETATM   10  N3  UNK     1      16.558  67.154   7.341  1.00  0.00    -0.260 NA
HETATM   11  C12 UNK     1      15.980  66.582   6.273  1.00  0.00     0.067 A 
HETATM   12  C13 UNK     1      15.117  65.523   6.525  1.00  0.00     0.032 A 
HETATM   13  C17 UNK     1      16.206  67.005   4.940  1.00  0.00     0.004 A 
HETATM   14  C14 UNK     1      14.444  64.864   5.502  1.00  0.00     0.002 A 
HETATM   15  C15 UNK     1      14.665  65.237   4.189  1.00  0.00     0.001 A 
HETATM   16  C16 UNK     1      15.554  66.278   3.906  1.00  0.00     0.014 A 
ENDBRANCH   5   7
BRANCH   1  17
HETATM   17  C5  UNK     1      19.930  69.366   3.721  1.00  0.00     0.087 A 
HETATM   18  C4  UNK     1      20.052  69.659   5.074  1.00  0.00     0.034 A 
HETATM   19  C3  UNK     1      21.308  69.993   5.570  1.00  0.00     0.005 A 
HETATM   20  C2  UNK     1      22.402  69.989   4.710  1.00  0.00     0.039 A 
HETATM   21  C1  UNK     1      22.195  69.624   3.389  1.00  0.00     0.103 A 
HETATM   22 BR1  UNK     1      23.677  69.595   2.206  1.00  0.00    -0.029 Br
HETATM   23  N4  UNK     1      20.984  69.305   2.879  1.00  0.00    -0.239 NA
ENDBRANCH   1  17
TORSDOF 2
ENDMDL
MODEL 8
REMARK VINA RESULT:      -8.0      3.390      5.554
REMARK  2 active torsions:
REMARK  status: ('A' for Active; 'I' for Inactive)
REMARK    1  A    between atoms: C5_6  and  C6_7 
REMARK    2  A    between atoms: C8_11  and  C9_12 
ROOT
HETATM    1  C6  UNK     1      16.993  66.988   7.787  1.00  0.00     0.091 A 
HETATM    2  N1  UNK     1      16.018  66.148   8.266  1.00  0.00    -0.275 N 
HETATM    3  N2  UNK     1      15.153  65.720   7.335  1.00  0.00    -0.186 NA
HETATM    4  C7  UNK     1      15.650  66.221   6.205  1.00  0.00     0.153 A 
HETATM    5  C8  UNK     1      16.789  67.044   6.408  1.00  0.00     0.025 A 
HETATM    6  H4  UNK     1      15.909  65.829   9.224  1.00  0.00     0.189 HD
ENDROOT
BRANCH   5   7
HETATM    7  C9  UNK     1      17.650  67.720   5.430  1.00  0.00    -0.008 A 
HETATM    8  C10 UNK     1      19.014  67.852   5.726  1.00  0.00     0.032 A 
HETATM    9  C11 UNK     1      19.827  68.547   4.859  1.00  0.00     0.118 A 
HETATM   10  N3  UNK     1      19.407  69.048   3.689  1.00  0.00    -0.260 NA
HETATM   11  C12 UNK     1      18.124  68.857   3.342  1.00  0.00     0.067 A 
HETATM   12  C13 UNK     1      17.743  69.319   2.089  1.00  0.00     0.032 A 
HETATM   13  C17 UNK     1      17.174  68.218   4.176  1.00  0.00     0.004 A 
HETATM   14  C14 UNK     1      16.447  69.160   1.610  1.00  0.00     0.002 A 
HETATM   15  C15 UNK     1      15.491  68.564   2.412  1.00  0.00     0.001 A 
HETATM   16  C16 UNK     1      15.840  68.120   3.691  1.00  0.00     0.014 A 
ENDBRANCH   5   7
BRANCH   1  17
HETATM   17  C5  UNK     1      18.006  67.516   8.692  1.00  0.00     0.087 A 
HETATM   18  C4  UNK     1      19.365  67.482   8.408  1.00  0.00     0.034 A 
HETATM   19  C3  UNK     1      20.262  67.826   9.414  1.00  0.00     0.005 A 
HETATM   20  C2  UNK     1      19.774  68.227  10.653  1.00  0.00     0.039 A 
HETATM   21  C1  UNK     1      18.399  68.290  10.826  1.00  0.00     0.103 A 
HETATM   22 BR1  UNK     1      17.714  68.853  12.503  1.00  0.00    -0.029 Br
HETATM   23  N4  UNK     1      17.506  67.951   9.869  1.00  0.00    -0.239 NA
ENDBRANCH   1  17
TORSDOF 2
ENDMDL
