MODEL 1
REMARK VINA RESULT:     -10.7      0.000      0.000
REMARK  3 active torsions:
REMARK  status: ('A' for Active; 'I' for Inactive)
REMARK    1  A    between atoms: C3_4  and  C4_5 
REMARK    2  A    between atoms: C5_7  and  N3_8 
REMARK    3  A    between atoms: C6_10  and  C7_11 
ROOT
HETATM    1  C4  UNK     1      15.157  66.259   6.800  1.00  0.00     0.132 A 
HETATM    2  N2  UNK     1      14.820  66.200   8.140  1.00  0.00    -0.060 NA
HETATM    3  C5  UNK     1      15.519  67.137   8.720  1.00  0.00     0.699 A 
HETATM    4  N4  UNK     1      16.315  67.791   7.823  1.00  0.00    -0.187 N 
HETATM    5  C6  UNK     1      16.133  67.232   6.574  1.00  0.00     0.091 A 
HETATM    6  H6  UNK     1      16.958  68.531   8.056  1.00  0.00     0.184 HD
ENDROOT
BRANCH   5   7
HETATM    7  C7  UNK     1      16.878  67.663   5.382  1.00  0.00    -0.004 A 
HETATM    8  C8  UNK     1      16.217  67.887   4.172  1.00  0.00     0.016 A 
HETATM    9  C9  UNK     1      16.872  68.481   3.094  1.00  0.00     0.035 A 
HETATM   10  C10 UNK     1      18.216  68.790   3.157  1.00  0.00     0.085 A 
HETATM   11  N5  UNK     1      18.805  69.388   2.107  1.00  0.00    -0.257 NA
HETATM   12  C13 UNK     1      18.937  68.451   4.332  1.00  0.00     0.086 A 
HETATM   13  C11 UNK     1      20.129  69.621   2.221  1.00  0.00     0.136 A 
HETATM   14  C12 UNK     1      20.848  69.246   3.336  1.00  0.00     0.136 A 
HETATM   15  N6  UNK     1      20.267  68.666   4.411  1.00  0.00    -0.257 NA
HETATM   16  C14 UNK     1      18.256  67.912   5.422  1.00  0.00     0.048 A 
ENDBRANCH   5   7
BRANCH   1  17
HETATM   17  C3  UNK     1      14.559  65.361   5.815  1.00  0.00     0.089 A 
HETATM   18  N1  UNK     1      13.208  65.209   5.845  1.00  0.00    -0.248 NA
HETATM   19  C2  UNK     1      12.623  64.492   4.850  1.00  0.00     0.070 A 
HETATM   20  C1  UNK     1      11.125  64.453   4.825  1.00  0.00     0.074 C 
HETATM   21  C17 UNK     1      13.361  63.875   3.850  1.00  0.00     0.140 A 
HETATM   22  C16 UNK     1      14.742  63.998   3.850  1.00  0.00     0.047 A 
HETATM   23  F1  UNK     1      12.754  63.191   2.871  1.00  0.00    -0.204 F 
HETATM   24  C15 UNK     1      15.355  64.756   4.848  1.00  0.00     0.037 A 
ENDBRANCH   1  17
BRANCH   3  25
HETATM   25  N3  UNK     1      15.515  67.465  10.016  1.00  0.00    -0.233 N 
HETATM   26  H4  UNK     1      14.615  67.388  10.484  1.00  0.00     0.174 HD
HETATM   27  H5  UNK     1      16.096  68.206  10.384  1.00  0.00     0.174 HD
ENDBRANCH   3  25
TORSDOF 3
ENDMDL
MODEL 2
REMARK VINA RESULT:     -10.0      2.119      6.486
REMARK  3 active torsions:
REMARK  status: ('A' for Active; 'I' for Inactive)
REMARK    1  A    between atoms: C3_4  and  C4_5 
REMARK    2  A    between atoms: C5_7  and  N3_8 
REMARK    3  A    between atoms: C6_10  and  C7_11 
ROOT
HETATM    1  C4  UNK     1      16.818  67.174   6.406  1.00  0.00     0.132 A 
HETATM    2  N2  UNK     1      17.399  67.486   7.623  1.00  0.00    -0.060 NA
HETATM    3  C5  UNK     1      16.843  66.686   8.492  1.00  0.00     0.699 A 
HETATM    4  N4  UNK     1      15.910  65.882   7.903  1.00  0.00    -0.187 N 
HETATM    5  C6  UNK     1      15.841  66.188   6.559  1.00  0.00     0.091 A 
HETATM    6  H6  UNK     1      15.340  65.208   8.390  1.00  0.00     0.184 HD
ENDROOT
BRANCH   5   7
HETATM    7  C7  UNK     1      14.898  65.544   5.633  1.00  0.00    -0.004 A 
HETATM    8  C8  UNK     1      15.362  64.826   4.530  1.00  0.00     0.016 A 
HETATM    9  C9  UNK     1      14.495  64.050   3.760  1.00  0.00     0.035 A 
HETATM   10  C10 UNK     1      13.137  64.036   4.010  1.00  0.00     0.085 A 
HETATM   11  N5  UNK     1      12.337  63.254   3.263  1.00  0.00    -0.257 NA
HETATM   12  C13 UNK     1      12.627  64.862   5.045  1.00  0.00     0.086 A 
HETATM   13  C11 UNK     1      11.018  63.322   3.534  1.00  0.00     0.136 A 
HETATM   14  C12 UNK     1      10.509  64.162   4.502  1.00  0.00     0.136 A 
HETATM   15  N6  UNK     1      11.301  64.937   5.279  1.00  0.00    -0.257 NA
HETATM   16  C14 UNK     1      13.513  65.585   5.844  1.00  0.00     0.048 A 
ENDBRANCH   5   7
BRANCH   1  17
HETATM   17  C3  UNK     1      17.200  67.859   5.174  1.00  0.00     0.089 A 
HETATM   18  N1  UNK     1      18.476  68.316   5.080  1.00  0.00    -0.248 NA
HETATM   19  C2  UNK     1      18.888  68.827   3.890  1.00  0.00     0.070 A 
HETATM   20  C1  UNK     1      20.335  69.197   3.768  1.00  0.00     0.074 C 
HETATM   21  C17 UNK     1      18.036  68.941   2.801  1.00  0.00     0.140 A 
HETATM   22  C16 UNK     1      16.723  68.512   2.916  1.00  0.00     0.047 A 
HETATM   23  F1  UNK     1      18.477  69.430   1.634  1.00  0.00    -0.204 F 
HETATM   24  C15 UNK     1      16.294  67.959   4.122  1.00  0.00     0.037 A 
ENDBRANCH   1  17
BRANCH   3  25
HETATM   25  N3  UNK     1      17.098  66.614   9.803  1.00  0.00    -0.233 N 
HETATM   26  H4  UNK     1      17.840  65.971  10.070  1.00  0.00     0.174 HD
HETATM   27  H5  UNK     1      16.367  66.692  10.497  1.00  0.00     0.174 HD
ENDBRANCH   3  25
TORSDOF 3
ENDMDL
MODEL 3
REMARK VINA RESULT:      -9.9      2.763      6.876
REMARK  3 active torsions:
REMARK  status: ('A' for Active; 'I' for Inactive)
REMARK    1  A    between atoms: C3_4  and  C4_5 
REMARK    2  A    between atoms: C5_7  and  N3_8 
REMARK    3  A    between atoms: C6_10  and  C7_11 
ROOT
HETATM    1  C4  UNK     1      18.056  68.327   4.813  1.00  0.00     0.132 A 
HETATM    2  N2  UNK     1      18.767  69.119   3.929  1.00  0.00    -0.060 NA
HETATM    3  C5  UNK     1      18.108  69.069   2.804  1.00  0.00     0.699 A 
HETATM    4  N4  UNK     1      17.011  68.262   2.906  1.00  0.00    -0.187 N 
HETATM    5  C6  UNK     1      16.959  67.738   4.182  1.00  0.00     0.091 A 
HETATM    6  H6  UNK     1      16.374  68.057   2.152  1.00  0.00     0.184 HD
ENDROOT
BRANCH   5   7
HETATM    7  C7  UNK     1      15.930  66.783   4.620  1.00  0.00    -0.004 A 
HETATM    8  C8  UNK     1      15.410  66.841   5.914  1.00  0.00     0.016 A 
HETATM    9  C9  UNK     1      14.302  66.076   6.279  1.00  0.00     0.035 A 
HETATM   10  C10 UNK     1      13.737  65.173   5.400  1.00  0.00     0.085 A 
HETATM   11  N5  UNK     1      12.653  64.475   5.780  1.00  0.00    -0.257 NA
HETATM   12  C13 UNK     1      14.332  65.004   4.123  1.00  0.00     0.086 A 
HETATM   13  C11 UNK     1      12.179  63.580   4.888  1.00  0.00     0.136 A 
HETATM   14  C12 UNK     1      12.784  63.370   3.667  1.00  0.00     0.136 A 
HETATM   15  N6  UNK     1      13.860  64.082   3.259  1.00  0.00    -0.257 NA
HETATM   16  C14 UNK     1      15.401  65.818   3.752  1.00  0.00     0.048 A 
ENDBRANCH   5   7
BRANCH   1  17
HETATM   17  C3  UNK     1      18.483  68.147   6.198  1.00  0.00     0.089 A 
HETATM   18  N1  UNK     1      17.663  68.621   7.173  1.00  0.00    -0.248 NA
HETATM   19  C2  UNK     1      17.973  68.336   8.466  1.00  0.00     0.070 A 
HETATM   20  C1  UNK     1      16.986  68.749   9.513  1.00  0.00     0.074 C 
HETATM   21  C17 UNK     1      19.117  67.630   8.813  1.00  0.00     0.140 A 
HETATM   22  C16 UNK     1      19.971  67.186   7.815  1.00  0.00     0.047 A 
HETATM   23  F1  UNK     1      19.385  67.347  10.095  1.00  0.00    -0.204 F 
HETATM   24  C15 UNK     1      19.650  67.446   6.483  1.00  0.00     0.037 A 
ENDBRANCH   1  17
BRANCH   3  25
HETATM   25  N3  UNK     1      18.411  69.692   1.660  1.00  0.00    -0.233 N 
HETATM   26  H4  UNK     1      18.313  69.132   0.817  1.00  0.00     0.174 HD
HETATM   27  H5  UNK     1      19.153  70.377   1.603  1.00  0.00     0.174 HD
ENDBRANCH   3  25
TORSDOF 3
ENDMDL
MODEL 4
REMARK VINA RESULT:      -9.6      2.399      4.382
REMARK  3 active torsions:
REMARK  status: ('A' for Active; 'I' for Inactive)
REMARK    1  A    between atoms: C3_4  and  C4_5 
REMARK    2  A    between atoms: C5_7  and  N3_8 
REMARK    3  A    between atoms: C6_10  and  C7_11 
ROOT
HETATM    1  C4  UNK     1      14.535  66.213   6.023  1.00  0.00     0.132 A 
HETATM    2  N2  UNK     1      13.484  65.317   6.109  1.00  0.00    -0.060 NA
HETATM    3  C5  UNK     1      13.337  64.831   4.907  1.00  0.00     0.699 A 
HETATM    4  N4  UNK     1      14.229  65.386   4.034  1.00  0.00    -0.187 N 
HETATM    5  C6  UNK     1      15.002  66.308   4.711  1.00  0.00     0.091 A 
HETATM    6  H6  UNK     1      14.276  65.178   3.049  1.00  0.00     0.184 HD
ENDROOT
BRANCH   5   7
HETATM    7  C7  UNK     1      16.031  67.131   4.058  1.00  0.00    -0.004 A 
HETATM    8  C8  UNK     1      15.719  67.907   2.941  1.00  0.00     0.016 A 
HETATM    9  C9  UNK     1      16.627  68.837   2.435  1.00  0.00     0.035 A 
HETATM   10  C10 UNK     1      17.896  68.959   2.967  1.00  0.00     0.085 A 
HETATM   11  N5  UNK     1      18.733  69.886   2.469  1.00  0.00    -0.257 NA
HETATM   12  C13 UNK     1      18.278  68.087   4.019  1.00  0.00     0.086 A 
HETATM   13  C11 UNK     1      19.969  69.921   3.007  1.00  0.00     0.136 A 
HETATM   14  C12 UNK     1      20.366  69.041   3.992  1.00  0.00     0.136 A 
HETATM   15  N6  UNK     1      19.530  68.120   4.522  1.00  0.00    -0.257 NA
HETATM   16  C14 UNK     1      17.340  67.205   4.553  1.00  0.00     0.048 A 
ENDBRANCH   5   7
BRANCH   1  17
HETATM   17  C3  UNK     1      15.010  66.955   7.188  1.00  0.00     0.089 A 
HETATM   18  N1  UNK     1      15.176  66.265   8.347  1.00  0.00    -0.248 NA
HETATM   19  C2  UNK     1      15.751  66.907   9.398  1.00  0.00     0.070 A 
HETATM   20  C1  UNK     1      16.050  66.090  10.617  1.00  0.00     0.074 C 
HETATM   21  C17 UNK     1      16.118  68.243   9.336  1.00  0.00     0.140 A 
HETATM   22  C16 UNK     1      15.906  68.954   8.165  1.00  0.00     0.047 A 
HETATM   23  F1  UNK     1      16.702  68.843  10.383  1.00  0.00    -0.204 F 
HETATM   24  C15 UNK     1      15.344  68.301   7.068  1.00  0.00     0.037 A 
ENDBRANCH   1  17
BRANCH   3  25
HETATM   25  N3  UNK     1      12.449  63.916   4.508  1.00  0.00    -0.233 N 
HETATM   26  H4  UNK     1      11.576  63.894   5.030  1.00  0.00     0.174 HD
HETATM   27  H5  UNK     1      12.731  63.007   4.163  1.00  0.00     0.174 HD
ENDBRANCH   3  25
TORSDOF 3
ENDMDL
MODEL 5
REMARK VINA RESULT:      -9.4      2.600      5.817
REMARK  3 active torsions:
REMARK  status: ('A' for Active; 'I' for Inactive)
REMARK    1  A    between atoms: C3_4  and  C4_5 
REMARK    2  A    between atoms: C5_7  and  N3_8 
REMARK    3  A    between atoms: C6_10  and  C7_11 
ROOT
HETATM    1  C4  UNK     1      15.019  66.487   4.515  1.00  0.00     0.132 A 
HETATM    2  N2  UNK     1      14.280  65.545   3.820  1.00  0.00    -0.060 NA
HETATM    3  C5  UNK     1      13.693  64.819   4.731  1.00  0.00     0.699 A 
HETATM    4  N4  UNK     1      14.031  65.228   5.989  1.00  0.00    -0.187 N 
HETATM    5  C6  UNK     1      14.913  66.286   5.892  1.00  0.00     0.091 A 
HETATM    6  H6  UNK     1      13.715  64.792   6.841  1.00  0.00     0.184 HD
ENDROOT
BRANCH   5   7
HETATM    7  C7  UNK     1      15.521  66.937   7.062  1.00  0.00    -0.004 A 
HETATM    8  C8  UNK     1      14.726  67.587   8.008  1.00  0.00     0.016 A 
HETATM    9  C9  UNK     1      15.265  68.036   9.214  1.00  0.00     0.035 A 
HETATM   10  C10 UNK     1      16.617  67.929   9.475  1.00  0.00     0.085 A 
HETATM   11  N5  UNK     1      17.093  68.348  10.661  1.00  0.00    -0.257 NA
HETATM   12  C13 UNK     1      17.463  67.390   8.472  1.00  0.00     0.086 A 
HETATM   13  C11 UNK     1      18.428  68.254  10.832  1.00  0.00     0.136 A 
HETATM   14  C12 UNK     1      19.264  67.781   9.842  1.00  0.00     0.136 A 
HETATM   15  N6  UNK     1      18.799  67.333   8.653  1.00  0.00    -0.257 NA
HETATM   16  C14 UNK     1      16.902  66.892   7.297  1.00  0.00     0.048 A 
ENDBRANCH   5   7
BRANCH   1  17
HETATM   17  C3  UNK     1      15.814  67.501   3.827  1.00  0.00     0.089 A 
HETATM   18  N1  UNK     1      17.066  67.740   4.297  1.00  0.00    -0.248 NA
HETATM   19  C2  UNK     1      17.869  68.575   3.585  1.00  0.00     0.070 A 
HETATM   20  C1  UNK     1      19.288  68.716   4.045  1.00  0.00     0.074 C 
HETATM   21  C17 UNK     1      17.431  69.220   2.437  1.00  0.00     0.140 A 
HETATM   22  C16 UNK     1      16.138  69.005   1.987  1.00  0.00     0.047 A 
HETATM   23  F1  UNK     1      18.253  70.021   1.745  1.00  0.00    -0.204 F 
HETATM   24  C15 UNK     1      15.312  68.129   2.691  1.00  0.00     0.037 A 
ENDBRANCH   1  17
BRANCH   3  25
HETATM   25  N3  UNK     1      12.862  63.789   4.533  1.00  0.00    -0.233 N 
HETATM   26  H4  UNK     1      11.882  64.033   4.418  1.00  0.00     0.174 HD
HETATM   27  H5  UNK     1      13.002  62.893   4.981  1.00  0.00     0.174 HD
ENDBRANCH   3  25
TORSDOF 3
ENDMDL
MODEL 6
REMARK VINA RESULT:      -8.8      3.122      5.411
REMARK  3 active torsions:
REMARK  status: ('A' for Active; 'I' for Inactive)
REMARK    1  A    between atoms: C3_4  and  C4_5 
REMARK    2  A    between atoms: C5_7  and  N3_8 
REMARK    3  A    between atoms: C6_10  and  C7_11 
ROOT
HETATM    1  C4  UNK     1      17.814  68.329   4.212  1.00  0.00     0.132 A 
HETATM    2  N2  UNK     1      17.881  68.731   2.889  1.00  0.00    -0.060 NA
HETATM    3  C5  UNK     1      19.057  69.277   2.748  1.00  0.00     0.699 A 
HETATM    4  N4  UNK     1      19.754  69.271   3.923  1.00  0.00    -0.187 N 
HETATM    5  C6  UNK     1      18.971  68.694   4.902  1.00  0.00     0.091 A 
HETATM    6  H6  UNK     1      20.672  69.665   4.050  1.00  0.00     0.184 HD
ENDROOT
BRANCH   5   7
HETATM    7  C7  UNK     1      19.395  68.574   6.305  1.00  0.00    -0.004 A 
HETATM    8  C8  UNK     1      19.300  67.353   6.975  1.00  0.00     0.016 A 
HETATM    9  C9  UNK     1      19.876  67.175   8.233  1.00  0.00     0.035 A 
HETATM   10  C10 UNK     1      20.485  68.224   8.894  1.00  0.00     0.085 A 
HETATM   11  N5  UNK     1      21.053  68.007  10.093  1.00  0.00    -0.257 NA
HETATM   12  C13 UNK     1      20.477  69.507   8.286  1.00  0.00     0.086 A 
HETATM   13  C11 UNK     1      21.590  69.084  10.700  1.00  0.00     0.136 A 
HETATM   14  C12 UNK     1      21.539  70.344  10.141  1.00  0.00     0.136 A 
HETATM   15  N6  UNK     1      20.994  70.577   8.926  1.00  0.00    -0.257 NA
HETATM   16  C14 UNK     1      19.950  69.654   7.004  1.00  0.00     0.048 A 
ENDBRANCH   5   7
BRANCH   1  17
HETATM   17  C3  UNK     1      16.636  67.655   4.752  1.00  0.00     0.089 A 
HETATM   18  N1  UNK     1      16.191  66.550   4.098  1.00  0.00    -0.248 NA
HETATM   19  C2  UNK     1      15.188  65.829   4.665  1.00  0.00     0.070 A 
HETATM   20  C1  UNK     1      14.808  64.543   3.999  1.00  0.00     0.074 C 
HETATM   21  C17 UNK     1      14.579  66.217   5.850  1.00  0.00     0.140 A 
HETATM   22  C16 UNK     1      15.009  67.369   6.490  1.00  0.00     0.047 A 
HETATM   23  F1  UNK     1      13.605  65.476   6.396  1.00  0.00    -0.204 F 
HETATM   24  C15 UNK     1      16.057  68.103   5.935  1.00  0.00     0.037 A 
ENDBRANCH   1  17
BRANCH   3  25
HETATM   25  N3  UNK     1      19.576  69.801   1.632  1.00  0.00    -0.233 N 
HETATM   26  H4  UNK     1      20.472  69.416   1.343  1.00  0.00     0.174 HD
HETATM   27  H5  UNK     1      19.465  70.778   1.396  1.00  0.00     0.174 HD
ENDBRANCH   3  25
TORSDOF 3
ENDMDL
MODEL 7
REMARK VINA RESULT:      -8.8      2.816      6.354
REMARK  3 active torsions:
REMARK  status: ('A' for Active; 'I' for Inactive)
REMARK    1  A    between atoms: C3_4  and  C4_5 
REMARK    2  A    between atoms: C5_7  and  N3_8 
REMARK    3  A    between atoms: C6_10  and  C7_11 
ROOT
HETATM    1  C4  UNK     1      19.860  69.023   3.974  1.00  0.00     0.132 A 
HETATM    2  N2  UNK     1      20.876  69.597   3.231  1.00  0.00    -0.060 NA
HETATM    3  C5  UNK     1      21.909  69.642   4.027  1.00  0.00     0.699 A 
HETATM    4  N4  UNK     1      21.608  69.144   5.262  1.00  0.00    -0.187 N 
HETATM    5  C6  UNK     1      20.282  68.761   5.278  1.00  0.00     0.091 A 
HETATM    6  H6  UNK     1      22.248  69.107   6.040  1.00  0.00     0.184 HD
ENDROOT
BRANCH   5   7
HETATM    7  C7  UNK     1      19.612  68.228   6.474  1.00  0.00    -0.004 A 
HETATM    8  C8  UNK     1      20.165  67.160   7.183  1.00  0.00     0.016 A 
HETATM    9  C9  UNK     1      19.649  66.775   8.420  1.00  0.00     0.035 A 
HETATM   10  C10 UNK     1      18.523  67.380   8.945  1.00  0.00     0.085 A 
HETATM   11  N5  UNK     1      18.073  66.999  10.153  1.00  0.00    -0.257 NA
HETATM   12  C13 UNK     1      17.869  68.379   8.178  1.00  0.00     0.086 A 
HETATM   13  C11 UNK     1      16.946  67.601  10.584  1.00  0.00     0.136 A 
HETATM   14  C12 UNK     1      16.274  68.534   9.822  1.00  0.00     0.136 A 
HETATM   15  N6  UNK     1      16.726  68.946   8.616  1.00  0.00    -0.257 NA
HETATM   16  C14 UNK     1      18.431  68.794   6.972  1.00  0.00     0.048 A 
ENDBRANCH   5   7
BRANCH   1  17
HETATM   17  C3  UNK     1      18.532  68.790   3.410  1.00  0.00     0.089 A 
HETATM   18  N1  UNK     1      17.794  67.781   3.942  1.00  0.00    -0.248 NA
HETATM   19  C2  UNK     1      16.506  67.642   3.529  1.00  0.00     0.070 A 
HETATM   20  C1  UNK     1      15.671  66.614   4.227  1.00  0.00     0.074 C 
HETATM   21  C17 UNK     1      15.952  68.459   2.553  1.00  0.00     0.140 A 
HETATM   22  C16 UNK     1      16.724  69.459   1.984  1.00  0.00     0.047 A 
HETATM   23  F1  UNK     1      14.673  68.311   2.181  1.00  0.00    -0.204 F 
HETATM   24  C15 UNK     1      18.038  69.632   2.419  1.00  0.00     0.037 A 
ENDBRANCH   1  17
BRANCH   3  25
HETATM   25  N3  UNK     1      23.130  70.107   3.741  1.00  0.00    -0.233 N 
HETATM   26  H4  UNK     1      23.273  70.400   2.778  1.00  0.00     0.174 HD
HETATM   27  H5  UNK     1      23.963  69.728   4.173  1.00  0.00     0.174 HD
ENDBRANCH   3  25
TORSDOF 3
ENDMDL
MODEL 8
REMARK VINA RESULT:      -8.8      2.153      5.056
REMARK  3 active torsions:
REMARK  status: ('A' for Active; 'I' for Inactive)
REMARK    1  A    between atoms: C3_4  and  C4_5 
REMARK    2  A    between atoms: C5_7  and  N3_8 
REMARK    3  A    between atoms: C6_10  and  C7_11 
ROOT
HETATM    1  C4  UNK     1      16.450  67.603   4.000  1.00  0.00     0.132 A 
HETATM    2  N2  UNK     1      16.468  68.151   2.729  1.00  0.00    -0.060 NA
HETATM    3  C5  UNK     1      17.547  68.882   2.678  1.00  0.00     0.699 A 
HETATM    4  N4  UNK     1      18.223  68.856   3.865  1.00  0.00    -0.187 N 
HETATM    5  C6  UNK     1      17.529  68.064   4.757  1.00  0.00     0.091 A 
HETATM    6  H6  UNK     1      19.068  69.371   4.058  1.00  0.00     0.184 HD
ENDROOT
BRANCH   5   7
HETATM    7  C7  UNK     1      17.951  67.860   6.150  1.00  0.00    -0.004 A 
HETATM    8  C8  UNK     1      19.218  67.352   6.443  1.00  0.00     0.016 A 
HETATM    9  C9  UNK     1      19.702  67.338   7.751  1.00  0.00     0.035 A 
HETATM   10  C10 UNK     1      18.914  67.745   8.809  1.00  0.00     0.085 A 
HETATM   11  N5  UNK     1      19.427  67.742  10.052  1.00  0.00    -0.257 NA
HETATM   12  C13 UNK     1      17.577  68.141   8.548  1.00  0.00     0.086 A 
HETATM   13  C11 UNK     1      18.588  68.111  11.042  1.00  0.00     0.136 A 
HETATM   14  C12 UNK     1      17.271  68.446  10.803  1.00  0.00     0.136 A 
HETATM   15  N6  UNK     1      16.746  68.477   9.557  1.00  0.00    -0.257 NA
HETATM   16  C14 UNK     1      17.127  68.207   7.229  1.00  0.00     0.048 A 
ENDBRANCH   5   7
BRANCH   1  17
HETATM   17  C3  UNK     1      15.386  66.701   4.434  1.00  0.00     0.089 A 
HETATM   18  N1  UNK     1      15.028  65.700   3.586  1.00  0.00    -0.248 NA
HETATM   19  C2  UNK     1      14.143  64.769   4.031  1.00  0.00     0.070 A 
HETATM   20  C1  UNK     1      13.869  63.602   3.134  1.00  0.00     0.074 C 
HETATM   21  C17 UNK     1      13.564  64.844   5.290  1.00  0.00     0.140 A 
HETATM   22  C16 UNK     1      13.901  65.891   6.134  1.00  0.00     0.047 A 
HETATM   23  F1  UNK     1      12.710  63.900   5.709  1.00  0.00    -0.204 F 
HETATM   24  C15 UNK     1      14.830  66.837   5.702  1.00  0.00     0.037 A 
ENDBRANCH   1  17
BRANCH   3  25
HETATM   25  N3  UNK     1      17.991  69.597   1.639  1.00  0.00    -0.233 N 
HETATM   26  H4  UNK     1      17.532  70.493   1.495  1.00  0.00     0.174 HD
HETATM   27  H5  UNK     1      18.297  69.161   0.779  1.00  0.00     0.174 HD
ENDBRANCH   3  25
TORSDOF 3
ENDMDL
MODEL 9
REMARK VINA RESULT:      -8.6      4.580      7.544
REMARK  3 active torsions:
REMARK  status: ('A' for Active; 'I' for Inactive)
REMARK    1  A    between atoms: C3_4  and  C4_5 
REMARK    2  A    between atoms: C5_7  and  N3_8 
REMARK    3  A    between atoms: C6_10  and  C7_11 
ROOT
HETATM    1  C4  UNK     1      18.698  68.048  11.112  1.00  0.00     0.132 A 
HETATM    2  N2  UNK     1      18.791  67.923  12.487  1.00  0.00    -0.060 NA
HETATM    3  C5  UNK     1      17.617  67.513  12.882  1.00  0.00     0.699 A 
HETATM    4  N4  UNK     1      16.755  67.386  11.831  1.00  0.00    -0.187 N 
HETATM    5  C6  UNK     1      17.407  67.752  10.671  1.00  0.00     0.091 A 
HETATM    6  H6  UNK     1      15.788  67.109  11.909  1.00  0.00     0.184 HD
ENDROOT
BRANCH   5   7
HETATM    7  C7  UNK     1      16.753  67.783   9.355  1.00  0.00    -0.004 A 
HETATM    8  C8  UNK     1      16.609  68.985   8.659  1.00  0.00     0.016 A 
HETATM    9  C9  UNK     1      16.172  69.002   7.335  1.00  0.00     0.035 A 
HETATM   10  C10 UNK     1      15.786  67.840   6.695  1.00  0.00     0.085 A 
HETATM   11  N5  UNK     1      15.398  67.894   5.409  1.00  0.00    -0.257 NA
HETATM   12  C13 UNK     1      15.801  66.624   7.426  1.00  0.00     0.086 A 
HETATM   13  C11 UNK     1      14.994  66.730   4.861  1.00  0.00     0.136 A 
HETATM   14  C12 UNK     1      14.954  65.554   5.580  1.00  0.00     0.136 A 
HETATM   15  N6  UNK     1      15.364  65.477   6.867  1.00  0.00    -0.257 NA
HETATM   16  C14 UNK     1      16.296  66.615   8.730  1.00  0.00     0.048 A 
ENDBRANCH   5   7
BRANCH   1  17
HETATM   17  C3  UNK     1      19.834  68.477  10.300  1.00  0.00     0.089 A 
HETATM   18  N1  UNK     1      20.530  69.566  10.721  1.00  0.00    -0.248 NA
HETATM   19  C2  UNK     1      21.671  69.893  10.059  1.00  0.00     0.070 A 
HETATM   20  C1  UNK     1      22.493  71.009  10.623  1.00  0.00     0.074 C 
HETATM   21  C17 UNK     1      22.108  69.186   8.947  1.00  0.00     0.140 A 
HETATM   22  C16 UNK     1      21.370  68.103   8.496  1.00  0.00     0.047 A 
HETATM   23  F1  UNK     1      23.248  69.520   8.327  1.00  0.00    -0.204 F 
HETATM   24  C15 UNK     1      20.212  67.738   9.183  1.00  0.00     0.037 A 
ENDBRANCH   1  17
BRANCH   3  25
HETATM   25  N3  UNK     1      17.235  67.241  14.134  1.00  0.00    -0.233 N 
HETATM   26  H4  UNK     1      17.913  66.735  14.699  1.00  0.00     0.174 HD
HETATM   27  H5  UNK     1      16.275  67.021  14.367  1.00  0.00     0.174 HD
ENDBRANCH   3  25
TORSDOF 3
ENDMDL
MODEL 10
REMARK VINA RESULT:      -8.5      2.173      3.155
REMARK  3 active torsions:
REMARK  status: ('A' for Active; 'I' for Inactive)
REMARK    1  A    between atoms: C3_4  and  C4_5 
REMARK    2  A    between atoms: C5_7  and  N3_8 
REMARK    3  A    between atoms: C6_10  and  C7_11 
ROOT
HETATM    1  C4  UNK     1      16.818  67.848   8.180  1.00  0.00     0.132 A 
HETATM    2  N2  UNK     1      16.332  67.894   9.474  1.00  0.00    -0.060 NA
HETATM    3  C5  UNK     1      17.254  68.492  10.175  1.00  0.00     0.699 A 
HETATM    4  N4  UNK     1      18.332  68.820   9.403  1.00  0.00    -0.187 N 
HETATM    5  C6  UNK     1      18.103  68.391   8.112  1.00  0.00     0.091 A 
HETATM    6  H6  UNK     1      19.171  69.263   9.744  1.00  0.00     0.184 HD
ENDROOT
BRANCH   5   7
HETATM    7  C7  UNK     1      19.086  68.537   7.028  1.00  0.00    -0.004 A 
HETATM    8  C8  UNK     1      19.018  67.728   5.892  1.00  0.00     0.016 A 
HETATM    9  C9  UNK     1      19.816  67.984   4.777  1.00  0.00     0.035 A 
HETATM   10  C10 UNK     1      20.759  68.993   4.791  1.00  0.00     0.085 A 
HETATM   11  N5  UNK     1      21.490  69.227   3.687  1.00  0.00    -0.257 NA
HETATM   12  C13 UNK     1      20.935  69.743   5.983  1.00  0.00     0.086 A 
HETATM   13  C11 UNK     1      22.422  70.197   3.786  1.00  0.00     0.136 A 
HETATM   14  C12 UNK     1      22.636  70.894   4.956  1.00  0.00     0.136 A 
HETATM   15  N6  UNK     1      21.893  70.689   6.068  1.00  0.00    -0.257 NA
HETATM   16  C14 UNK     1      20.089  69.514   7.068  1.00  0.00     0.048 A 
ENDBRANCH   5   7
BRANCH   1  17
HETATM   17  C3  UNK     1      16.049  67.255   7.089  1.00  0.00     0.089 A 
HETATM   18  N1  UNK     1      15.960  67.959   5.930  1.00  0.00    -0.248 NA
HETATM   19  C2  UNK     1      15.371  67.362   4.861  1.00  0.00     0.070 A 
HETATM   20  C1  UNK     1      15.406  68.101   3.559  1.00  0.00     0.074 C 
HETATM   21  C17 UNK     1      14.820  66.090   4.936  1.00  0.00     0.140 A 
HETATM   22  C16 UNK     1      14.876  65.394   6.133  1.00  0.00     0.047 A 
HETATM   23  F1  UNK     1      14.264  65.519   3.859  1.00  0.00    -0.204 F 
HETATM   24  C15 UNK     1      15.503  65.983   7.231  1.00  0.00     0.037 A 
ENDBRANCH   1  17
BRANCH   3  25
HETATM   25  N3  UNK     1      17.221  68.775  11.482  1.00  0.00    -0.233 N 
HETATM   26  H4  UNK     1      16.573  69.509  11.756  1.00  0.00     0.174 HD
HETATM   27  H5  UNK     1      18.051  68.738  12.061  1.00  0.00     0.174 HD
ENDBRANCH   3  25
TORSDOF 3
ENDMDL
