MODEL 1
REMARK VINA RESULT:     -10.0      0.000      0.000
REMARK  3 active torsions:
REMARK  status: ('A' for Active; 'I' for Inactive)
REMARK    1  A    between atoms: C6_6  and  C7_7 
REMARK    2  A    between atoms: C8_9  and  N2_10 
REMARK    3  A    between atoms: C9_12  and  C10_13 
ROOT
HETATM    1  C7  UNK     1      15.413  66.108   6.789  1.00  0.00     0.106 A 
HETATM    2  N1  UNK     1      15.023  65.907   8.115  1.00  0.00    -0.221 NA
HETATM    3  C8  UNK     1      15.752  66.636   8.916  1.00  0.00     0.165 A 
HETATM    4  S1  UNK     1      16.939  67.602   8.160  1.00  0.00    -0.050 SA
HETATM    5  C9  UNK     1      16.433  67.044   6.602  1.00  0.00     0.050 A 
ENDROOT
BRANCH   5   6
HETATM    6  C10 UNK     1      17.052  67.626   5.391  1.00  0.00    -0.014 A 
HETATM    7  C11 UNK     1      16.303  67.930   4.247  1.00  0.00     0.015 A 
HETATM    8  C12 UNK     1      16.919  68.486   3.119  1.00  0.00     0.035 A 
HETATM    9  C13 UNK     1      18.274  68.784   3.106  1.00  0.00     0.085 A 
HETATM   10  N3  UNK     1      18.831  69.348   2.013  1.00  0.00    -0.257 NA
HETATM   11  C16 UNK     1      19.045  68.490   4.253  1.00  0.00     0.086 A 
HETATM   12  C14 UNK     1      20.148  69.632   2.089  1.00  0.00     0.136 A 
HETATM   13  C15 UNK     1      20.894  69.366   3.215  1.00  0.00     0.136 A 
HETATM   14  N4  UNK     1      20.361  68.784   4.311  1.00  0.00    -0.257 NA
HETATM   15  C17 UNK     1      18.430  67.889   5.345  1.00  0.00     0.046 A 
ENDBRANCH   5   6
BRANCH   1  16
HETATM   16  C6  UNK     1      14.713  65.406   5.711  1.00  0.00     0.087 A 
HETATM   17  C5  UNK     1      15.432  64.833   4.668  1.00  0.00     0.034 A 
HETATM   18  C4  UNK     1      14.756  64.037   3.750  1.00  0.00     0.004 A 
HETATM   19  C3  UNK     1      13.387  63.832   3.901  1.00  0.00     0.027 A 
HETATM   20  C2  UNK     1      12.728  64.463   4.949  1.00  0.00     0.031 A 
HETATM   21  C1  UNK     1      11.272  64.222   5.208  1.00  0.00     0.070 C 
HETATM   22  N5  UNK     1      13.370  65.263   5.832  1.00  0.00    -0.252 NA
ENDBRANCH   1  16
BRANCH   3  23
HETATM   23  N2  UNK     1      15.596  66.641  10.250  1.00  0.00    -0.378 N 
HETATM   24  H7  UNK     1      15.194  67.483  10.643  1.00  0.00     0.158 HD
HETATM   25  H8  UNK     1      15.298  65.783  10.697  1.00  0.00     0.158 HD
ENDBRANCH   3  23
TORSDOF 3
ENDMDL
MODEL 2
REMARK VINA RESULT:     -10.0      1.647      6.486
REMARK  3 active torsions:
REMARK  status: ('A' for Active; 'I' for Inactive)
REMARK    1  A    between atoms: C6_6  and  C7_7 
REMARK    2  A    between atoms: C8_9  and  N2_10 
REMARK    3  A    between atoms: C9_12  and  C10_13 
ROOT
HETATM    1  C7  UNK     1      16.746  67.324   5.685  1.00  0.00     0.106 A 
HETATM    2  N1  UNK     1      17.612  67.773   6.684  1.00  0.00    -0.221 NA
HETATM    3  C8  UNK     1      17.345  67.178   7.814  1.00  0.00     0.165 A 
HETATM    4  S1  UNK     1      16.062  66.054   7.772  1.00  0.00    -0.050 SA
HETATM    5  C9  UNK     1      15.839  66.337   6.079  1.00  0.00     0.050 A 
ENDROOT
BRANCH   5   6
HETATM    6  C10 UNK     1      14.850  65.527   5.335  1.00  0.00    -0.014 A 
HETATM    7  C11 UNK     1      15.229  64.649   4.312  1.00  0.00     0.015 A 
HETATM    8  C12 UNK     1      14.268  63.891   3.632  1.00  0.00     0.035 A 
HETATM    9  C13 UNK     1      12.923  63.958   3.965  1.00  0.00     0.085 A 
HETATM   10  N3  UNK     1      12.025  63.191   3.309  1.00  0.00    -0.257 NA
HETATM   11  C16 UNK     1      12.523  64.834   4.999  1.00  0.00     0.086 A 
HETATM   12  C14 UNK     1      10.741  63.293   3.711  1.00  0.00     0.136 A 
HETATM   13  C15 UNK     1      10.354  64.131   4.733  1.00  0.00     0.136 A 
HETATM   14  N4  UNK     1      11.233  64.921   5.388  1.00  0.00    -0.257 NA
HETATM   15  C17 UNK     1      13.481  65.619   5.629  1.00  0.00     0.046 A 
ENDBRANCH   5   6
BRANCH   1  16
HETATM   16  C6  UNK     1      16.878  67.843   4.321  1.00  0.00     0.087 A 
HETATM   17  C5  UNK     1      15.753  67.989   3.517  1.00  0.00     0.034 A 
HETATM   18  C4  UNK     1      15.888  68.633   2.292  1.00  0.00     0.004 A 
HETATM   19  C3  UNK     1      17.136  69.116   1.908  1.00  0.00     0.027 A 
HETATM   20  C2  UNK     1      18.222  68.905   2.748  1.00  0.00     0.031 A 
HETATM   21  C1  UNK     1      19.574  69.466   2.426  1.00  0.00     0.070 C 
HETATM   22  N5  UNK     1      18.109  68.254   3.930  1.00  0.00    -0.252 NA
ENDBRANCH   1  16
BRANCH   3  23
HETATM   23  N2  UNK     1      18.022  67.419   8.949  1.00  0.00    -0.378 N 
HETATM   24  H7  UNK     1      18.494  68.314   8.999  1.00  0.00     0.158 HD
HETATM   25  H8  UNK     1      17.612  67.110   9.822  1.00  0.00     0.158 HD
ENDBRANCH   3  23
TORSDOF 3
ENDMDL
MODEL 3
REMARK VINA RESULT:      -9.5      2.175      6.693
REMARK  3 active torsions:
REMARK  status: ('A' for Active; 'I' for Inactive)
REMARK    1  A    between atoms: C6_6  and  C7_7 
REMARK    2  A    between atoms: C8_9  and  N2_10 
REMARK    3  A    between atoms: C9_12  and  C10_13 
ROOT
HETATM    1  C7  UNK     1      18.080  68.248   4.974  1.00  0.00     0.106 A 
HETATM    2  N1  UNK     1      18.828  69.206   4.285  1.00  0.00    -0.221 NA
HETATM    3  C8  UNK     1      18.297  69.438   3.116  1.00  0.00     0.165 A 
HETATM    4  S1  UNK     1      16.887  68.547   2.754  1.00  0.00    -0.050 SA
HETATM    5  C9  UNK     1      16.939  67.790   4.310  1.00  0.00     0.050 A 
ENDROOT
BRANCH   5   6
HETATM    6  C10 UNK     1      15.838  66.888   4.712  1.00  0.00    -0.014 A 
HETATM    7  C11 UNK     1      15.199  67.003   5.953  1.00  0.00     0.015 A 
HETATM    8  C12 UNK     1      14.155  66.138   6.300  1.00  0.00     0.035 A 
HETATM    9  C13 UNK     1      13.697  65.165   5.423  1.00  0.00     0.085 A 
HETATM   10  N3  UNK     1      12.668  64.366   5.777  1.00  0.00    -0.257 NA
HETATM   11  C16 UNK     1      14.326  65.038   4.163  1.00  0.00     0.086 A 
HETATM   12  C14 UNK     1      12.265  63.464   4.858  1.00  0.00     0.136 A 
HETATM   13  C15 UNK     1      12.863  63.354   3.623  1.00  0.00     0.136 A 
HETATM   14  N4  UNK     1      13.907  64.130   3.256  1.00  0.00    -0.257 NA
HETATM   15  C17 UNK     1      15.396  65.869   3.854  1.00  0.00     0.046 A 
ENDBRANCH   5   6
BRANCH   1  16
HETATM   16  C6  UNK     1      18.480  67.847   6.324  1.00  0.00     0.087 A 
HETATM   17  C5  UNK     1      19.708  67.228   6.535  1.00  0.00     0.034 A 
HETATM   18  C4  UNK     1      20.129  67.008   7.842  1.00  0.00     0.004 A 
HETATM   19  C3  UNK     1      19.318  67.413   8.898  1.00  0.00     0.027 A 
HETATM   20  C2  UNK     1      18.089  67.995   8.612  1.00  0.00     0.031 A 
HETATM   21  C1  UNK     1      17.206  68.520   9.703  1.00  0.00     0.070 C 
HETATM   22  N5  UNK     1      17.655  68.190   7.344  1.00  0.00    -0.252 NA
ENDBRANCH   1  16
BRANCH   3  23
HETATM   23  N2  UNK     1      18.810  70.315   2.238  1.00  0.00    -0.378 N 
HETATM   24  H7  UNK     1      19.585  70.873   2.575  1.00  0.00     0.158 HD
HETATM   25  H8  UNK     1      18.886  70.030   1.270  1.00  0.00     0.158 HD
ENDBRANCH   3  23
TORSDOF 3
ENDMDL
MODEL 4
REMARK VINA RESULT:      -9.0      1.709      4.036
REMARK  3 active torsions:
REMARK  status: ('A' for Active; 'I' for Inactive)
REMARK    1  A    between atoms: C6_6  and  C7_7 
REMARK    2  A    between atoms: C8_9  and  N2_10 
REMARK    3  A    between atoms: C9_12  and  C10_13 
ROOT
HETATM    1  C7  UNK     1      15.033  66.626   6.271  1.00  0.00     0.106 A 
HETATM    2  N1  UNK     1      14.031  65.692   6.546  1.00  0.00    -0.221 NA
HETATM    3  C8  UNK     1      13.645  65.106   5.446  1.00  0.00     0.165 A 
HETATM    4  S1  UNK     1      14.437  65.614   4.022  1.00  0.00    -0.050 SA
HETATM    5  C9  UNK     1      15.429  66.701   4.933  1.00  0.00     0.050 A 
ENDROOT
BRANCH   5   6
HETATM    6  C10 UNK     1      16.502  67.450   4.244  1.00  0.00    -0.014 A 
HETATM    7  C11 UNK     1      16.279  68.130   3.041  1.00  0.00     0.015 A 
HETATM    8  C12 UNK     1      17.315  68.835   2.417  1.00  0.00     0.035 A 
HETATM    9  C13 UNK     1      18.580  68.913   2.981  1.00  0.00     0.085 A 
HETATM   10  N3  UNK     1      19.550  69.627   2.369  1.00  0.00    -0.257 NA
HETATM   11  C16 UNK     1      18.823  68.239   4.199  1.00  0.00     0.086 A 
HETATM   12  C14 UNK     1      20.744  69.676   2.995  1.00  0.00     0.136 A 
HETATM   13  C15 UNK     1      20.975  69.037   4.192  1.00  0.00     0.136 A 
HETATM   14  N4  UNK     1      20.025  68.302   4.811  1.00  0.00    -0.257 NA
HETATM   15  C17 UNK     1      17.800  67.499   4.778  1.00  0.00     0.046 A 
ENDBRANCH   5   6
BRANCH   1  16
HETATM   16  C6  UNK     1      15.634  67.391   7.366  1.00  0.00     0.087 A 
HETATM   17  C5  UNK     1      15.764  68.772   7.265  1.00  0.00     0.034 A 
HETATM   18  C4  UNK     1      16.187  69.485   8.381  1.00  0.00     0.004 A 
HETATM   19  C3  UNK     1      16.462  68.804   9.563  1.00  0.00     0.027 A 
HETATM   20  C2  UNK     1      16.341  67.420   9.581  1.00  0.00     0.031 A 
HETATM   21  C1  UNK     1      16.550  66.639  10.843  1.00  0.00     0.070 C 
HETATM   22  N5  UNK     1      15.958  66.711   8.493  1.00  0.00    -0.252 NA
ENDBRANCH   1  16
BRANCH   3  23
HETATM   23  N2  UNK     1      12.690  64.163   5.412  1.00  0.00    -0.378 N 
HETATM   24  H7  UNK     1      12.637  63.561   6.225  1.00  0.00     0.158 HD
HETATM   25  H8  UNK     1      11.794  64.408   5.010  1.00  0.00     0.158 HD
ENDBRANCH   3  23
TORSDOF 3
ENDMDL
MODEL 5
REMARK VINA RESULT:      -8.9      2.578      5.612
REMARK  3 active torsions:
REMARK  status: ('A' for Active; 'I' for Inactive)
REMARK    1  A    between atoms: C6_6  and  C7_7 
REMARK    2  A    between atoms: C8_9  and  N2_10 
REMARK    3  A    between atoms: C9_12  and  C10_13 
ROOT
HETATM    1  C7  UNK     1      15.882  66.944   4.303  1.00  0.00     0.106 A 
HETATM    2  N1  UNK     1      14.882  66.241   3.626  1.00  0.00    -0.221 NA
HETATM    3  C8  UNK     1      14.222  65.482   4.457  1.00  0.00     0.165 A 
HETATM    4  S1  UNK     1      14.733  65.550   6.084  1.00  0.00    -0.050 SA
HETATM    5  C9  UNK     1      15.934  66.730   5.682  1.00  0.00     0.050 A 
ENDROOT
BRANCH   5   6
HETATM    6  C10 UNK     1      16.738  67.340   6.763  1.00  0.00    -0.014 A 
HETATM    7  C11 UNK     1      16.204  68.291   7.640  1.00  0.00     0.015 A 
HETATM    8  C12 UNK     1      16.990  68.844   8.658  1.00  0.00     0.035 A 
HETATM    9  C13 UNK     1      18.306  68.449   8.853  1.00  0.00     0.085 A 
HETATM   10  N3  UNK     1      19.028  68.979   9.863  1.00  0.00    -0.257 NA
HETATM   11  C16 UNK     1      18.861  67.485   7.982  1.00  0.00     0.086 A 
HETATM   12  C14 UNK     1      20.290  68.523  10.003  1.00  0.00     0.136 A 
HETATM   13  C15 UNK     1      20.824  67.568   9.167  1.00  0.00     0.136 A 
HETATM   14  N4  UNK     1      20.126  67.039   8.139  1.00  0.00    -0.257 NA
HETATM   15  C17 UNK     1      18.085  66.984   6.944  1.00  0.00     0.046 A 
ENDBRANCH   5   6
BRANCH   1  16
HETATM   16  C6  UNK     1      16.737  67.879   3.568  1.00  0.00     0.087 A 
HETATM   17  C5  UNK     1      16.204  68.660   2.548  1.00  0.00     0.034 A 
HETATM   18  C4  UNK     1      17.000  69.650   1.981  1.00  0.00     0.004 A 
HETATM   19  C3  UNK     1      18.297  69.835   2.450  1.00  0.00     0.027 A 
HETATM   20  C2  UNK     1      18.774  68.996   3.449  1.00  0.00     0.031 A 
HETATM   21  C1  UNK     1      20.134  69.194   4.047  1.00  0.00     0.070 C 
HETATM   22  N5  UNK     1      18.019  68.010   3.989  1.00  0.00    -0.252 NA
ENDBRANCH   1  16
BRANCH   3  23
HETATM   23  N2  UNK     1      13.204  64.692   4.080  1.00  0.00    -0.378 N 
HETATM   24  H7  UNK     1      13.014  63.900   4.683  1.00  0.00     0.158 HD
HETATM   25  H8  UNK     1      12.379  65.132   3.691  1.00  0.00     0.158 HD
ENDBRANCH   3  23
TORSDOF 3
ENDMDL
MODEL 6
REMARK VINA RESULT:      -8.8      3.502      5.759
REMARK  3 active torsions:
REMARK  status: ('A' for Active; 'I' for Inactive)
REMARK    1  A    between atoms: C6_6  and  C7_7 
REMARK    2  A    between atoms: C8_9  and  N2_10 
REMARK    3  A    between atoms: C9_12  and  C10_13 
ROOT
HETATM    1  C7  UNK     1      17.706  68.448   4.813  1.00  0.00     0.106 A 
HETATM    2  N1  UNK     1      17.528  68.667   3.445  1.00  0.00    -0.221 NA
HETATM    3  C8  UNK     1      18.620  69.152   2.919  1.00  0.00     0.165 A 
HETATM    4  S1  UNK     1      19.922  69.379   3.998  1.00  0.00    -0.050 SA
HETATM    5  C9  UNK     1      18.981  68.741   5.304  1.00  0.00     0.050 A 
ENDROOT
BRANCH   5   6
HETATM    6  C10 UNK     1      19.615  68.553   6.627  1.00  0.00    -0.014 A 
HETATM    7  C11 UNK     1      19.754  67.289   7.211  1.00  0.00     0.015 A 
HETATM    8  C12 UNK     1      20.365  67.145   8.463  1.00  0.00     0.035 A 
HETATM    9  C13 UNK     1      20.879  68.236   9.148  1.00  0.00     0.085 A 
HETATM   10  N3  UNK     1      21.489  68.060  10.340  1.00  0.00    -0.257 NA
HETATM   11  C16 UNK     1      20.753  69.520   8.571  1.00  0.00     0.086 A 
HETATM   12  C14 UNK     1      21.986  69.167  10.930  1.00  0.00     0.136 A 
HETATM   13  C15 UNK     1      21.882  70.415  10.358  1.00  0.00     0.136 A 
HETATM   14  N4  UNK     1      21.258  70.616   9.176  1.00  0.00    -0.257 NA
HETATM   15  C17 UNK     1      20.097  69.654   7.354  1.00  0.00     0.046 A 
ENDBRANCH   5   6
BRANCH   1  16
HETATM   16  C6  UNK     1      16.613  67.882   5.607  1.00  0.00     0.087 A 
HETATM   17  C5  UNK     1      15.968  66.725   5.183  1.00  0.00     0.034 A 
HETATM   18  C4  UNK     1      15.048  66.124   6.036  1.00  0.00     0.004 A 
HETATM   19  C3  UNK     1      14.803  66.690   7.284  1.00  0.00     0.027 A 
HETATM   20  C2  UNK     1      15.460  67.866   7.627  1.00  0.00     0.031 A 
HETATM   21  C1  UNK     1      15.296  68.480   8.983  1.00  0.00     0.070 C 
HETATM   22  N5  UNK     1      16.337  68.475   6.794  1.00  0.00    -0.252 NA
ENDBRANCH   1  16
BRANCH   3  23
HETATM   23  N2  UNK     1      18.734  69.460   1.617  1.00  0.00    -0.378 N 
HETATM   24  H7  UNK     1      17.863  69.544   1.106  1.00  0.00     0.158 HD
HETATM   25  H8  UNK     1      19.446  70.127   1.347  1.00  0.00     0.158 HD
ENDBRANCH   3  23
TORSDOF 3
ENDMDL
MODEL 7
REMARK VINA RESULT:      -8.6      3.599      6.588
REMARK  3 active torsions:
REMARK  status: ('A' for Active; 'I' for Inactive)
REMARK    1  A    between atoms: C6_6  and  C7_7 
REMARK    2  A    between atoms: C8_9  and  N2_10 
REMARK    3  A    between atoms: C9_12  and  C10_13 
ROOT
HETATM    1  C7  UNK     1      19.848  69.378   2.813  1.00  0.00     0.106 A 
HETATM    2  N1  UNK     1      20.418  69.696   1.578  1.00  0.00    -0.221 NA
HETATM    3  C8  UNK     1      21.704  69.877   1.708  1.00  0.00     0.165 A 
HETATM    4  S1  UNK     1      22.322  69.681   3.286  1.00  0.00    -0.050 SA
HETATM    5  C9  UNK     1      20.746  69.278   3.878  1.00  0.00     0.050 A 
ENDROOT
BRANCH   5   6
HETATM    6  C10 UNK     1      20.588  68.864   5.289  1.00  0.00    -0.014 A 
HETATM    7  C11 UNK     1      20.162  67.578   5.642  1.00  0.00     0.015 A 
HETATM    8  C12 UNK     1      20.030  67.214   6.988  1.00  0.00     0.035 A 
HETATM    9  C13 UNK     1      20.345  68.097   8.011  1.00  0.00     0.085 A 
HETATM   10  N3  UNK     1      20.235  67.705   9.299  1.00  0.00    -0.257 NA
HETATM   11  C16 UNK     1      20.783  69.398   7.674  1.00  0.00     0.086 A 
HETATM   12  C14 UNK     1      20.586  68.612  10.234  1.00  0.00     0.136 A 
HETATM   13  C15 UNK     1      21.034  69.872   9.905  1.00  0.00     0.136 A 
HETATM   14  N4  UNK     1      21.132  70.291   8.625  1.00  0.00    -0.257 NA
HETATM   15  C17 UNK     1      20.859  69.760   6.335  1.00  0.00     0.046 A 
ENDBRANCH   5   6
BRANCH   1  16
HETATM   16  C6  UNK     1      18.410  69.110   2.902  1.00  0.00     0.087 A 
HETATM   17  C5  UNK     1      17.597  69.281   1.787  1.00  0.00     0.034 A 
HETATM   18  C4  UNK     1      16.272  68.864   1.858  1.00  0.00     0.004 A 
HETATM   19  C3  UNK     1      15.799  68.287   3.034  1.00  0.00     0.027 A 
HETATM   20  C2  UNK     1      16.660  68.179   4.119  1.00  0.00     0.031 A 
HETATM   21  C1  UNK     1      16.233  67.499   5.384  1.00  0.00     0.070 C 
HETATM   22  N5  UNK     1      17.944  68.606   4.072  1.00  0.00    -0.252 NA
ENDBRANCH   1  16
BRANCH   3  23
HETATM   23  N2  UNK     1      22.508  70.196   0.681  1.00  0.00    -0.378 N 
HETATM   24  H7  UNK     1      22.379  71.123   0.292  1.00  0.00     0.158 HD
HETATM   25  H8  UNK     1      23.470  69.884   0.715  1.00  0.00     0.158 HD
ENDBRANCH   3  23
TORSDOF 3
ENDMDL
MODEL 8
REMARK VINA RESULT:      -8.4      1.700      5.987
REMARK  3 active torsions:
REMARK  status: ('A' for Active; 'I' for Inactive)
REMARK    1  A    between atoms: C6_6  and  C7_7 
REMARK    2  A    between atoms: C8_9  and  N2_10 
REMARK    3  A    between atoms: C9_12  and  C10_13 
ROOT
HETATM    1  C7  UNK     1      17.699  68.377   7.394  1.00  0.00     0.106 A 
HETATM    2  N1  UNK     1      18.111  68.858   8.640  1.00  0.00    -0.221 NA
HETATM    3  C8  UNK     1      17.253  68.517   9.562  1.00  0.00     0.165 A 
HETATM    4  S1  UNK     1      15.911  67.610   9.023  1.00  0.00    -0.050 SA
HETATM    5  C9  UNK     1      16.523  67.623   7.404  1.00  0.00     0.050 A 
ENDROOT
BRANCH   5   6
HETATM    6  C10 UNK     1      15.815  66.855   6.357  1.00  0.00    -0.014 A 
HETATM    7  C11 UNK     1      16.275  66.802   5.036  1.00  0.00     0.015 A 
HETATM    8  C12 UNK     1      15.585  66.060   4.070  1.00  0.00     0.035 A 
HETATM    9  C13 UNK     1      14.449  65.330   4.392  1.00  0.00     0.085 A 
HETATM   10  N3  UNK     1      13.824  64.600   3.443  1.00  0.00    -0.257 NA
HETATM   11  C16 UNK     1      13.974  65.366   5.722  1.00  0.00     0.086 A 
HETATM   12  C14 UNK     1      12.743  63.897   3.842  1.00  0.00     0.136 A 
HETATM   13  C15 UNK     1      12.292  63.915   5.143  1.00  0.00     0.136 A 
HETATM   14  N4  UNK     1      12.891  64.654   6.102  1.00  0.00    -0.257 NA
HETATM   15  C17 UNK     1      14.639  66.150   6.657  1.00  0.00     0.046 A 
ENDBRANCH   5   6
BRANCH   1  16
HETATM   16  C6  UNK     1      18.526  68.624   6.211  1.00  0.00     0.087 A 
HETATM   17  C5  UNK     1      19.835  68.156   6.164  1.00  0.00     0.034 A 
HETATM   18  C4  UNK     1      20.539  68.262   4.968  1.00  0.00     0.004 A 
HETATM   19  C3  UNK     1      19.917  68.826   3.858  1.00  0.00     0.027 A 
HETATM   20  C2  UNK     1      18.618  69.302   3.988  1.00  0.00     0.031 A 
HETATM   21  C1  UNK     1      17.870  69.850   2.811  1.00  0.00     0.070 C 
HETATM   22  N5  UNK     1      17.932  69.230   5.154  1.00  0.00    -0.252 NA
ENDBRANCH   1  16
BRANCH   3  23
HETATM   23  N2  UNK     1      17.395  68.847  10.856  1.00  0.00    -0.378 N 
HETATM   24  H7  UNK     1      18.131  69.511  11.062  1.00  0.00     0.158 HD
HETATM   25  H8  UNK     1      16.557  68.961  11.412  1.00  0.00     0.158 HD
ENDBRANCH   3  23
TORSDOF 3
ENDMDL
MODEL 9
REMARK VINA RESULT:      -8.3      2.453      5.507
REMARK  3 active torsions:
REMARK  status: ('A' for Active; 'I' for Inactive)
REMARK    1  A    between atoms: C6_6  and  C7_7 
REMARK    2  A    between atoms: C8_9  and  N2_10 
REMARK    3  A    between atoms: C9_12  and  C10_13 
ROOT
HETATM    1  C7  UNK     1      17.045  67.849   4.428  1.00  0.00     0.106 A 
HETATM    2  N1  UNK     1      17.097  68.189   3.074  1.00  0.00    -0.221 NA
HETATM    3  C8  UNK     1      18.097  68.997   2.850  1.00  0.00     0.165 A 
HETATM    4  S1  UNK     1      19.039  69.403   4.214  1.00  0.00    -0.050 SA
HETATM    5  C9  UNK     1      18.063  68.387   5.219  1.00  0.00     0.050 A 
ENDROOT
BRANCH   5   6
HETATM    6  C10 UNK     1      18.439  68.198   6.637  1.00  0.00    -0.014 A 
HETATM    7  C11 UNK     1      19.725  67.794   7.016  1.00  0.00     0.015 A 
HETATM    8  C12 UNK     1      20.052  67.630   8.367  1.00  0.00     0.035 A 
HETATM    9  C13 UNK     1      19.131  67.891   9.372  1.00  0.00     0.085 A 
HETATM   10  N3  UNK     1      19.487  67.752  10.667  1.00  0.00    -0.257 NA
HETATM   11  C16 UNK     1      17.830  68.306   9.009  1.00  0.00     0.086 A 
HETATM   12  C14 UNK     1      18.544  68.052  11.585  1.00  0.00     0.136 A 
HETATM   13  C15 UNK     1      17.283  68.476  11.231  1.00  0.00     0.136 A 
HETATM   14  N4  UNK     1      16.900  68.603   9.942  1.00  0.00    -0.257 NA
HETATM   15  C17 UNK     1      17.505  68.413   7.662  1.00  0.00     0.046 A 
ENDBRANCH   5   6
BRANCH   1  16
HETATM   16  C6  UNK     1      16.010  66.929   4.907  1.00  0.00     0.087 A 
HETATM   17  C5  UNK     1      15.280  67.234   6.050  1.00  0.00     0.034 A 
HETATM   18  C4  UNK     1      14.198  66.426   6.386  1.00  0.00     0.004 A 
HETATM   19  C3  UNK     1      13.876  65.344   5.572  1.00  0.00     0.027 A 
HETATM   20  C2  UNK     1      14.671  65.081   4.463  1.00  0.00     0.031 A 
HETATM   21  C1  UNK     1      14.330  63.977   3.509  1.00  0.00     0.070 C 
HETATM   22  N5  UNK     1      15.742  65.843   4.142  1.00  0.00    -0.252 NA
ENDBRANCH   1  16
BRANCH   3  23
HETATM   23  N2  UNK     1      18.386  69.488   1.634  1.00  0.00    -0.378 N 
HETATM   24  H7  UNK     1      17.590  69.704   1.046  1.00  0.00     0.158 HD
HETATM   25  H8  UNK     1      19.157  70.139   1.554  1.00  0.00     0.158 HD
ENDBRANCH   3  23
TORSDOF 3
ENDMDL
MODEL 10
REMARK VINA RESULT:      -8.2      2.830      6.253
REMARK  3 active torsions:
REMARK  status: ('A' for Active; 'I' for Inactive)
REMARK    1  A    between atoms: C6_6  and  C7_7 
REMARK    2  A    between atoms: C8_9  and  N2_10 
REMARK    3  A    between atoms: C9_12  and  C10_13 
ROOT
HETATM    1  C7  UNK     1      19.261  69.154   3.260  1.00  0.00     0.106 A 
HETATM    2  N1  UNK     1      20.045  69.564   2.179  1.00  0.00    -0.221 NA
HETATM    3  C8  UNK     1      21.289  69.695   2.547  1.00  0.00     0.165 A 
HETATM    4  S1  UNK     1      21.616  69.342   4.185  1.00  0.00    -0.050 SA
HETATM    5  C9  UNK     1      19.955  68.935   4.452  1.00  0.00     0.050 A 
ENDROOT
BRANCH   5   6
HETATM    6  C10 UNK     1      19.545  68.402   5.770  1.00  0.00    -0.014 A 
HETATM    7  C11 UNK     1      20.218  67.337   6.382  1.00  0.00     0.015 A 
HETATM    8  C12 UNK     1      19.809  66.861   7.633  1.00  0.00     0.035 A 
HETATM    9  C13 UNK     1      18.752  67.441   8.320  1.00  0.00     0.085 A 
HETATM   10  N3  UNK     1      18.402  66.977   9.538  1.00  0.00    -0.257 NA
HETATM   11  C16 UNK     1      18.065  68.521   7.720  1.00  0.00     0.086 A 
HETATM   12  C14 UNK     1      17.382  67.613  10.153  1.00  0.00     0.136 A 
HETATM   13  C15 UNK     1      16.726  68.678   9.578  1.00  0.00     0.136 A 
HETATM   14  N4  UNK     1      17.048  69.145   8.351  1.00  0.00    -0.257 NA
HETATM   15  C17 UNK     1      18.449  68.948   6.455  1.00  0.00     0.046 A 
ENDBRANCH   5   6
BRANCH   1  16
HETATM   16  C6  UNK     1      17.827  68.922   3.072  1.00  0.00     0.087 A 
HETATM   17  C5  UNK     1      17.129  69.621   2.093  1.00  0.00     0.034 A 
HETATM   18  C4  UNK     1      15.811  69.262   1.830  1.00  0.00     0.004 A 
HETATM   19  C3  UNK     1      15.232  68.217   2.544  1.00  0.00     0.027 A 
HETATM   20  C2  UNK     1      15.980  67.586   3.530  1.00  0.00     0.031 A 
HETATM   21  C1  UNK     1      15.438  66.406   4.279  1.00  0.00     0.070 C 
HETATM   22  N5  UNK     1      17.254  67.944   3.815  1.00  0.00    -0.252 NA
ENDBRANCH   1  16
BRANCH   3  23
HETATM   23  N2  UNK     1      22.267  70.080   1.711  1.00  0.00    -0.378 N 
HETATM   24  H7  UNK     1      22.059  69.996   0.723  1.00  0.00     0.158 HD
HETATM   25  H8  UNK     1      22.810  70.897   1.958  1.00  0.00     0.158 HD
ENDBRANCH   3  23
TORSDOF 3
ENDMDL
