REMARK  2 active torsions:
REMARK  status: ('A' for Active; 'I' for Inactive)
REMARK    1  A    between atoms: C5_6  and  C6_7 
REMARK    2  A    between atoms: C8_11  and  C9_12 
ROOT
HETATM    1  C6  UNK     1      -3.109  -2.392   0.048  1.00  0.00     0.091 A 
HETATM    2  N1  UNK     1      -2.889  -3.371   0.986  1.00  0.00    -0.275 N 
HETATM    3  N2  UNK     1      -3.540  -4.519   0.748  1.00  0.00    -0.186 NA
HETATM    4  C7  UNK     1      -4.116  -4.302  -0.434  1.00  0.00     0.153 A 
HETATM    5  C8  UNK     1      -3.910  -2.987  -0.927  1.00  0.00     0.025 A 
HETATM    6  H4  UNK     1      -2.291  -3.305   1.804  1.00  0.00     0.189 HD
ENDROOT
BRANCH   5   7
HETATM    7  C9  UNK     1      -4.320  -2.382  -2.200  1.00  0.00    -0.008 A 
HETATM    8  C10 UNK     1      -3.390  -1.591  -2.889  1.00  0.00     0.032 A 
HETATM    9  C11 UNK     1      -3.775  -0.953  -4.047  1.00  0.00     0.118 A 
HETATM   10  N3  UNK     1      -4.981  -1.105  -4.611  1.00  0.00    -0.260 NA
HETATM   11  C12 UNK     1      -5.859  -1.929  -4.017  1.00  0.00     0.067 A 
HETATM   12  C13 UNK     1      -7.069  -2.125  -4.671  1.00  0.00     0.032 A 
HETATM   13  C17 UNK     1      -5.607  -2.589  -2.789  1.00  0.00     0.004 A 
HETATM   14  C14 UNK     1      -8.049  -2.972  -4.165  1.00  0.00     0.002 A 
HETATM   15  C15 UNK     1      -7.842  -3.609  -2.955  1.00  0.00     0.001 A 
HETATM   16  C16 UNK     1      -6.647  -3.402  -2.260  1.00  0.00     0.014 A 
ENDBRANCH   5   7
BRANCH   1  17
HETATM   17  C5  UNK     1      -2.451  -1.099   0.181  1.00  0.00     0.087 A 
HETATM   18  C4  UNK     1      -3.042   0.094  -0.216  1.00  0.00     0.034 A 
HETATM   19  C3  UNK     1      -2.264   1.247  -0.234  1.00  0.00     0.005 A 
HETATM   20  C2  UNK     1      -0.937   1.178   0.178  1.00  0.00     0.039 A 
HETATM   21  C1  UNK     1      -0.450  -0.044   0.616  1.00  0.00     0.103 A 
HETATM   22 BR1  UNK     1       1.352  -0.154   1.199  1.00  0.00    -0.029 Br
HETATM   23  N4  UNK     1      -1.181  -1.181   0.634  1.00  0.00    -0.239 NA
ENDBRANCH   1  17
TORSDOF 2
