REMARK  3 active torsions:
REMARK  status: ('A' for Active; 'I' for Inactive)
REMARK    1  A    between atoms: C6_6  and  C7_7 
REMARK    2  A    between atoms: C8_9  and  N2_10 
REMARK    3  A    between atoms: C9_12  and  C10_13 
ROOT
HETATM    1  C7  UNK     1      -1.609   2.515   0.080  1.00  0.00     0.106 A 
HETATM    2  N1  UNK     1      -2.510   2.932   1.063  1.00  0.00    -0.221 NA
HETATM    3  C8  UNK     1      -2.973   4.118   0.777  1.00  0.00     0.165 A 
HETATM    4  S1  UNK     1      -2.381   4.815  -0.664  1.00  0.00    -0.050 SA
HETATM    5  C9  UNK     1      -1.434   3.402  -0.985  1.00  0.00     0.050 A 
ENDROOT
BRANCH   5   6
HETATM    6  C10 UNK     1      -0.683   3.309  -2.256  1.00  0.00    -0.014 A 
HETATM    7  C11 UNK     1      -0.040   4.417  -2.821  1.00  0.00     0.015 A 
HETATM    8  C12 UNK     1       0.669   4.294  -4.022  1.00  0.00     0.035 A 
HETATM    9  C13 UNK     1       0.786   3.074  -4.673  1.00  0.00     0.085 A 
HETATM   10  N3  UNK     1       1.502   2.983  -5.814  1.00  0.00    -0.257 NA
HETATM   11  C16 UNK     1       0.149   1.943  -4.114  1.00  0.00     0.086 A 
HETATM   12  C14 UNK     1       1.591   1.757  -6.371  1.00  0.00     0.136 A 
HETATM   13  C15 UNK     1       0.988   0.651  -5.815  1.00  0.00     0.136 A 
HETATM   14  N4  UNK     1       0.251   0.724  -4.685  1.00  0.00    -0.257 NA
HETATM   15  C17 UNK     1      -0.595   2.092  -2.950  1.00  0.00     0.046 A 
ENDBRANCH   5   6
BRANCH   1  16
HETATM   16  C6  UNK     1      -0.979   1.197   0.184  1.00  0.00     0.087 A 
HETATM   17  C5  UNK     1      -1.694   0.119   0.695  1.00  0.00     0.034 A 
HETATM   18  C4  UNK     1      -1.126  -1.149   0.630  1.00  0.00     0.004 A 
HETATM   19  C3  UNK     1       0.132  -1.305   0.055  1.00  0.00     0.027 A 
HETATM   20  C2  UNK     1       0.802  -0.178  -0.405  1.00  0.00     0.031 A 
HETATM   21  C1  UNK     1       2.124  -0.291  -1.101  1.00  0.00     0.070 C 
HETATM   22  N5  UNK     1       0.272   1.065  -0.322  1.00  0.00    -0.252 NA
ENDBRANCH   1  16
BRANCH   3  23
HETATM   23  N2  UNK     1      -3.858   4.767   1.551  1.00  0.00    -0.378 N 
HETATM   24  H7  UNK     1      -3.962   4.412   2.494  1.00  0.00     0.158 HD
HETATM   25  H8  UNK     1      -3.909   5.775   1.473  1.00  0.00     0.158 HD
ENDBRANCH   3  23
TORSDOF 3
