REMARK  2 active torsions:
REMARK  status: ('A' for Active; 'I' for Inactive)
REMARK       I    between atoms: C2_2  and  N1_4 
REMARK    1  A    between atoms: N1_4  and  C3_5 
REMARK    2  A    between atoms: C4_7  and  C5_8 
ROOT
HETATM    1  C3  UNK     1       4.829   0.928   0.774  1.00  0.00     0.708 A 
HETATM    2  N2  UNK     1       5.582   0.893  -0.298  1.00  0.00    -0.060 NA
HETATM    3  C4  UNK     1       6.882   0.990   0.132  1.00  0.00     0.132 A 
HETATM    4  C11 UNK     1       6.927   1.060   1.510  1.00  0.00     0.092 A 
HETATM    5  C12 UNK     1       7.979   0.988   2.457  1.00  0.00     0.011 A 
HETATM    6  C13 UNK     1       8.569  -0.285   2.880  1.00  0.00     0.019 A 
HETATM    7  C14 UNK     1       9.697  -0.346   3.611  1.00  0.00     0.053 A 
HETATM    8  C15 UNK     1      10.334   0.857   4.011  1.00  0.00     0.151 A 
HETATM    9  N4  UNK     1      11.426   1.083   4.706  1.00  0.00    -0.221 NA
HETATM   10  C16 UNK     1      11.491   2.443   4.724  1.00  0.00     0.258 A 
HETATM   11  N5  UNK     1      10.505   3.087   4.098  1.00  0.00    -0.160 NA
HETATM   12  N6  UNK     1       9.750   2.065   3.618  1.00  0.00    -0.225 N 
HETATM   13  C17 UNK     1       8.589   2.126   2.845  1.00  0.00     0.134 A 
HETATM   14  N7  UNK     1       5.608   1.076   1.900  1.00  0.00    -0.186 N 
HETATM   15  H14 UNK     1       5.271   1.119   2.850  1.00  0.00     0.184 HD
ENDROOT
BRANCH   3  16
HETATM   16  C5  UNK     1       8.024   0.919  -0.764  1.00  0.00     0.089 A 
HETATM   17  C6  UNK     1       7.943   0.156  -1.924  1.00  0.00     0.037 A 
HETATM   18  C7  UNK     1       9.051   0.101  -2.762  1.00  0.00     0.047 A 
HETATM   19  C8  UNK     1      10.188   0.821  -2.422  1.00  0.00     0.140 A 
HETATM   20  F1  UNK     1      11.254   0.787  -3.231  1.00  0.00    -0.204 F 
HETATM   21  C9  UNK     1      10.202   1.565  -1.246  1.00  0.00     0.070 A 
HETATM   22  C10 UNK     1      11.401   2.369  -0.851  1.00  0.00     0.074 C 
HETATM   23  N3  UNK     1       9.135   1.616  -0.408  1.00  0.00    -0.248 NA
ENDBRANCH   3  16
BRANCH   1  24
HETATM   24  N1  UNK     1       3.461   0.810   0.834  1.00  0.00    -0.158 N 
HETATM   25  C2  UNK     1       2.709   0.599  -0.313  1.00  0.00     0.232 C 
HETATM   26  C1  UNK     1       1.243   0.439  -0.005  1.00  0.00     0.118 C 
HETATM   27  O1  UNK     1       3.105   0.535  -1.472  1.00  0.00    -0.273 OA
HETATM   28  H4  UNK     1       2.999   0.841   1.730  1.00  0.00     0.187 HD
ENDBRANCH   1  24
TORSDOF 2
