REMARK  3 active torsions:
REMARK  status: ('A' for Active; 'I' for Inactive)
REMARK    1  A    between atoms: C3_4  and  C4_5 
REMARK    2  A    between atoms: C5_7  and  N3_8 
REMARK    3  A    between atoms: C6_10  and  C7_11 
ROOT
HETATM    1  C4  UNK     1       5.164   2.492  -0.052  1.00  0.00     0.132 A 
HETATM    2  N2  UNK     1       5.245   3.341   1.041  1.00  0.00    -0.060 NA
HETATM    3  C5  UNK     1       5.989   4.344   0.653  1.00  0.00     0.699 A 
HETATM    4  N4  UNK     1       6.357   4.208  -0.656  1.00  0.00    -0.187 N 
HETATM    5  C6  UNK     1       5.813   3.043  -1.158  1.00  0.00     0.091 A 
HETATM    6  H6  UNK     1       6.932   4.860  -1.162  1.00  0.00     0.184 HD
ENDROOT
BRANCH   5   7
HETATM    7  C7  UNK     1       5.986   2.613  -2.548  1.00  0.00    -0.004 A 
HETATM    8  C8  UNK     1       7.176   2.854  -3.236  1.00  0.00     0.016 A 
HETATM    9  C9  UNK     1       7.367   2.329  -4.519  1.00  0.00     0.035 A 
HETATM   10  C10 UNK     1       6.389   1.570  -5.144  1.00  0.00     0.085 A 
HETATM   11  N5  UNK     1       6.637   1.021  -6.350  1.00  0.00    -0.257 NA
HETATM   12  C13 UNK     1       5.145   1.391  -4.494  1.00  0.00     0.086 A 
HETATM   13  C11 UNK     1       5.629   0.315  -6.905  1.00  0.00     0.136 A 
HETATM   14  C12 UNK     1       4.398   0.185  -6.296  1.00  0.00     0.136 A 
HETATM   15  N6  UNK     1       4.138   0.711  -5.082  1.00  0.00    -0.257 NA
HETATM   16  C14 UNK     1       4.970   1.918  -3.221  1.00  0.00     0.048 A 
ENDBRANCH   5   7
BRANCH   1  17
HETATM   17  C3  UNK     1       4.469   1.210   0.010  1.00  0.00     0.089 A 
HETATM   18  N1  UNK     1       4.928   0.215  -0.793  1.00  0.00    -0.248 NA
HETATM   19  C2  UNK     1       4.239  -0.954  -0.822  1.00  0.00     0.070 A 
HETATM   20  C1  UNK     1       4.734  -2.021  -1.748  1.00  0.00     0.074 C 
HETATM   21  C17 UNK     1       3.114  -1.169  -0.036  1.00  0.00     0.140 A 
HETATM   22  C16 UNK     1       2.674  -0.162   0.811  1.00  0.00     0.047 A 
HETATM   23  F1  UNK     1       2.449  -2.331  -0.090  1.00  0.00    -0.204 F 
HETATM   24  C15 UNK     1       3.363   1.050   0.839  1.00  0.00     0.037 A 
ENDBRANCH   1  17
BRANCH   3  25
HETATM   25  N3  UNK     1       6.390   5.385   1.380  1.00  0.00    -0.233 N 
HETATM   26  H4  UNK     1       5.955   5.502   2.293  1.00  0.00     0.174 HD
HETATM   27  H5  UNK     1       6.770   6.234   0.984  1.00  0.00     0.174 HD
ENDBRANCH   3  25
TORSDOF 3
