MODEL 1
REMARK VINA RESULT:     -10.7      0.000      0.000
REMARK  3 active torsions:
REMARK  status: ('A' for Active; 'I' for Inactive)
REMARK    1  A    between atoms: C3_4  and  C4_5 
REMARK    2  A    between atoms: C5_7  and  N3_8 
REMARK    3  A    between atoms: C6_10  and  C7_11 
ROOT
HETATM    1  C4  UNK     1      15.146  66.268   6.706  1.00  0.00     0.132 A 
HETATM    2  N2  UNK     1      14.742  66.204   8.031  1.00  0.00    -0.060 NA
HETATM    3  C5  UNK     1      15.564  66.981   8.687  1.00  0.00     0.699 A 
HETATM    4  N4  UNK     1      16.454  67.583   7.843  1.00  0.00    -0.187 N 
HETATM    5  C6  UNK     1      16.194  67.177   6.550  1.00  0.00     0.091 A 
HETATM    6  H6  UNK     1      17.179  68.219   8.130  1.00  0.00     0.184 HD
ENDROOT
BRANCH   5   7
HETATM    7  C7  UNK     1      16.947  67.664   5.391  1.00  0.00    -0.004 A 
HETATM    8  C8  UNK     1      16.305  67.975   4.191  1.00  0.00     0.016 A 
HETATM    9  C9  UNK     1      17.022  68.554   3.138  1.00  0.00     0.035 A 
HETATM   10  C10 UNK     1      18.378  68.825   3.248  1.00  0.00     0.085 A 
HETATM   11  N5  UNK     1      19.019  69.449   2.239  1.00  0.00    -0.257 NA
HETATM   12  C13 UNK     1      19.058  68.436   4.425  1.00  0.00     0.086 A 
HETATM   13  C11 UNK     1      20.341  69.658   2.409  1.00  0.00     0.136 A 
HETATM   14  C12 UNK     1      21.016  69.231   3.534  1.00  0.00     0.136 A 
HETATM   15  N6  UNK     1      20.388  68.623   4.561  1.00  0.00    -0.257 NA
HETATM   16  C14 UNK     1      18.334  67.862   5.462  1.00  0.00     0.048 A 
ENDBRANCH   5   7
BRANCH   1  17
HETATM   17  C3  UNK     1      14.512  65.471   5.661  1.00  0.00     0.089 A 
HETATM   18  N1  UNK     1      13.158  65.358   5.701  1.00  0.00    -0.248 NA
HETATM   19  C2  UNK     1      12.556  64.544   4.797  1.00  0.00     0.070 A 
HETATM   20  C1  UNK     1      11.069  64.397   4.887  1.00  0.00     0.074 C 
HETATM   21  C17 UNK     1      13.274  63.863   3.822  1.00  0.00     0.140 A 
HETATM   22  C16 UNK     1      14.652  64.014   3.762  1.00  0.00     0.047 A 
HETATM   23  F1  UNK     1      12.654  63.061   2.946  1.00  0.00    -0.204 F 
HETATM   24  C15 UNK     1      15.286  64.834   4.696  1.00  0.00     0.037 A 
ENDBRANCH   1  17
BRANCH   3  25
HETATM   25  N3  UNK     1      15.602  67.196  10.001  1.00  0.00    -0.233 N 
HETATM   26  H4  UNK     1      15.357  68.131  10.320  1.00  0.00     0.174 HD
HETATM   27  H5  UNK     1      16.187  66.674  10.639  1.00  0.00     0.174 HD
ENDBRANCH   3  25
TORSDOF 3
ENDMDL
MODEL 2
REMARK VINA RESULT:     -10.0      2.161      6.587
REMARK  3 active torsions:
REMARK  status: ('A' for Active; 'I' for Inactive)
REMARK    1  A    between atoms: C3_4  and  C4_5 
REMARK    2  A    between atoms: C5_7  and  N3_8 
REMARK    3  A    between atoms: C6_10  and  C7_11 
ROOT
HETATM    1  C4  UNK     1      16.834  67.079   6.392  1.00  0.00     0.132 A 
HETATM    2  N2  UNK     1      17.459  67.344   7.601  1.00  0.00    -0.060 NA
HETATM    3  C5  UNK     1      16.790  66.668   8.498  1.00  0.00     0.699 A 
HETATM    4  N4  UNK     1      15.787  65.940   7.922  1.00  0.00    -0.187 N 
HETATM    5  C6  UNK     1      15.806  66.149   6.557  1.00  0.00     0.091 A 
HETATM    6  H6  UNK     1      15.145  65.349   8.422  1.00  0.00     0.184 HD
ENDROOT
BRANCH   5   7
HETATM    7  C7  UNK     1      14.881  65.488   5.633  1.00  0.00    -0.004 A 
HETATM    8  C8  UNK     1      15.350  64.751   4.545  1.00  0.00     0.016 A 
HETATM    9  C9  UNK     1      14.457  64.027   3.747  1.00  0.00     0.035 A 
HETATM   10  C10 UNK     1      13.094  64.026   4.002  1.00  0.00     0.085 A 
HETATM   11  N5  UNK     1      12.274  63.260   3.256  1.00  0.00    -0.257 NA
HETATM   12  C13 UNK     1      12.595  64.838   5.049  1.00  0.00     0.086 A 
HETATM   13  C11 UNK     1      10.958  63.330   3.549  1.00  0.00     0.136 A 
HETATM   14  C12 UNK     1      10.466  64.161   4.534  1.00  0.00     0.136 A 
HETATM   15  N6  UNK     1      11.272  64.920   5.303  1.00  0.00    -0.257 NA
HETATM   16  C14 UNK     1      13.494  65.551   5.832  1.00  0.00     0.048 A 
ENDBRANCH   5   7
BRANCH   1  17
HETATM   17  C3  UNK     1      17.251  67.714   5.146  1.00  0.00     0.089 A 
HETATM   18  N1  UNK     1      18.554  68.085   5.044  1.00  0.00    -0.248 NA
HETATM   19  C2  UNK     1      18.942  68.763   3.934  1.00  0.00     0.070 A 
HETATM   20  C1  UNK     1      20.371  69.204   3.861  1.00  0.00     0.074 C 
HETATM   21  C17 UNK     1      18.062  69.052   2.898  1.00  0.00     0.140 A 
HETATM   22  C16 UNK     1      16.742  68.635   2.992  1.00  0.00     0.047 A 
HETATM   23  F1  UNK     1      18.470  69.729   1.817  1.00  0.00    -0.204 F 
HETATM   24  C15 UNK     1      16.326  67.952   4.134  1.00  0.00     0.037 A 
ENDBRANCH   1  17
BRANCH   3  25
HETATM   25  N3  UNK     1      16.987  66.652   9.815  1.00  0.00    -0.233 N 
HETATM   26  H4  UNK     1      16.286  67.116  10.390  1.00  0.00     0.174 HD
HETATM   27  H5  UNK     1      17.898  66.574  10.246  1.00  0.00     0.174 HD
ENDBRANCH   3  25
TORSDOF 3
ENDMDL
MODEL 3
REMARK VINA RESULT:      -9.8      2.860      6.975
REMARK  3 active torsions:
REMARK  status: ('A' for Active; 'I' for Inactive)
REMARK    1  A    between atoms: C3_4  and  C4_5 
REMARK    2  A    between atoms: C5_7  and  N3_8 
REMARK    3  A    between atoms: C6_10  and  C7_11 
ROOT
HETATM    1  C4  UNK     1      18.079  68.340   4.868  1.00  0.00     0.132 A 
HETATM    2  N2  UNK     1      18.701  69.263   4.042  1.00  0.00    -0.060 NA
HETATM    3  C5  UNK     1      18.021  69.250   2.925  1.00  0.00     0.699 A 
HETATM    4  N4  UNK     1      16.958  68.395   3.004  1.00  0.00    -0.187 N 
HETATM    5  C6  UNK     1      16.939  67.816   4.257  1.00  0.00     0.091 A 
HETATM    6  H6  UNK     1      16.301  68.224   2.262  1.00  0.00     0.184 HD
ENDROOT
BRANCH   5   7
HETATM    7  C7  UNK     1      15.904  66.871   4.686  1.00  0.00    -0.004 A 
HETATM    8  C8  UNK     1      15.329  66.956   5.955  1.00  0.00     0.016 A 
HETATM    9  C9  UNK     1      14.259  66.124   6.301  1.00  0.00     0.035 A 
HETATM   10  C10 UNK     1      13.747  65.194   5.409  1.00  0.00     0.085 A 
HETATM   11  N5  UNK     1      12.669  64.460   5.753  1.00  0.00    -0.257 NA
HETATM   12  C13 UNK     1      14.375  65.037   4.151  1.00  0.00     0.086 A 
HETATM   13  C11 UNK     1      12.243  63.560   4.842  1.00  0.00     0.136 A 
HETATM   14  C12 UNK     1      12.888  63.369   3.637  1.00  0.00     0.136 A 
HETATM   15  N6  UNK     1      13.955  64.106   3.269  1.00  0.00    -0.257 NA
HETATM   16  C14 UNK     1      15.437  65.869   3.822  1.00  0.00     0.048 A 
ENDBRANCH   5   7
BRANCH   1  17
HETATM   17  C3  UNK     1      18.594  68.013   6.194  1.00  0.00     0.089 A 
HETATM   18  N1  UNK     1      17.824  68.352   7.261  1.00  0.00    -0.248 NA
HETATM   19  C2  UNK     1      18.325  68.144   8.505  1.00  0.00     0.070 A 
HETATM   20  C1  UNK     1      17.480  68.568   9.666  1.00  0.00     0.074 C 
HETATM   21  C17 UNK     1      19.572  67.569   8.713  1.00  0.00     0.140 A 
HETATM   22  C16 UNK     1      20.336  67.189   7.619  1.00  0.00     0.047 A 
HETATM   23  F1  UNK     1      20.045  67.381   9.952  1.00  0.00    -0.204 F 
HETATM   24  C15 UNK     1      19.840  67.411   6.335  1.00  0.00     0.037 A 
ENDBRANCH   1  17
BRANCH   3  25
HETATM   25  N3  UNK     1      18.276  69.935   1.812  1.00  0.00    -0.233 N 
HETATM   26  H4  UNK     1      18.721  70.844   1.925  1.00  0.00     0.174 HD
HETATM   27  H5  UNK     1      17.755  69.826   0.953  1.00  0.00     0.174 HD
ENDBRANCH   3  25
TORSDOF 3
ENDMDL
MODEL 4
REMARK VINA RESULT:      -8.9      2.306      5.044
REMARK  3 active torsions:
REMARK  status: ('A' for Active; 'I' for Inactive)
REMARK    1  A    between atoms: C3_4  and  C4_5 
REMARK    2  A    between atoms: C5_7  and  N3_8 
REMARK    3  A    between atoms: C6_10  and  C7_11 
ROOT
HETATM    1  C4  UNK     1      16.731  67.692   4.152  1.00  0.00     0.132 A 
HETATM    2  N2  UNK     1      16.724  68.179   2.854  1.00  0.00    -0.060 NA
HETATM    3  C5  UNK     1      17.717  69.027   2.792  1.00  0.00     0.699 A 
HETATM    4  N4  UNK     1      18.397  69.079   3.976  1.00  0.00    -0.187 N 
HETATM    5  C6  UNK     1      17.814  68.203   4.869  1.00  0.00     0.091 A 
HETATM    6  H6  UNK     1      19.195  69.665   4.156  1.00  0.00     0.184 HD
ENDROOT
BRANCH   5   7
HETATM    7  C7  UNK     1      18.321  67.988   6.227  1.00  0.00    -0.004 A 
HETATM    8  C8  UNK     1      19.611  67.505   6.448  1.00  0.00     0.016 A 
HETATM    9  C9  UNK     1      20.120  67.422   7.749  1.00  0.00     0.035 A 
HETATM   10  C10 UNK     1      19.364  67.804   8.847  1.00  0.00     0.085 A 
HETATM   11  N5  UNK     1      19.913  67.778  10.078  1.00  0.00    -0.257 NA
HETATM   12  C13 UNK     1      18.025  68.213   8.645  1.00  0.00     0.086 A 
HETATM   13  C11 UNK     1      19.109  68.142  11.100  1.00  0.00     0.136 A 
HETATM   14  C12 UNK     1      17.787  68.490  10.909  1.00  0.00     0.136 A 
HETATM   15  N6  UNK     1      17.227  68.539   9.684  1.00  0.00    -0.257 NA
HETATM   16  C14 UNK     1      17.534  68.290   7.348  1.00  0.00     0.048 A 
ENDBRANCH   5   7
BRANCH   1  17
HETATM   17  C3  UNK     1      15.715  66.763   4.638  1.00  0.00     0.089 A 
HETATM   18  N1  UNK     1      15.432  65.688   3.858  1.00  0.00    -0.248 NA
HETATM   19  C2  UNK     1      14.426  64.863   4.243  1.00  0.00     0.070 A 
HETATM   20  C1  UNK     1      14.099  63.711   3.346  1.00  0.00     0.074 C 
HETATM   21  C17 UNK     1      13.712  65.067   5.417  1.00  0.00     0.140 A 
HETATM   22  C16 UNK     1      14.033  66.145   6.230  1.00  0.00     0.047 A 
HETATM   23  F1  UNK     1      12.718  64.240   5.770  1.00  0.00    -0.204 F 
HETATM   24  C15 UNK     1      15.054  67.009   5.837  1.00  0.00     0.037 A 
ENDBRANCH   1  17
BRANCH   3  25
HETATM   25  N3  UNK     1      18.072  69.786   1.757  1.00  0.00    -0.233 N 
HETATM   26  H4  UNK     1      17.363  69.953   1.046  1.00  0.00     0.174 HD
HETATM   27  H5  UNK     1      19.024  69.884   1.431  1.00  0.00     0.174 HD
ENDBRANCH   3  25
TORSDOF 3
ENDMDL
MODEL 5
REMARK VINA RESULT:      -8.8      4.410      6.630
REMARK  3 active torsions:
REMARK  status: ('A' for Active; 'I' for Inactive)
REMARK    1  A    between atoms: C3_4  and  C4_5 
REMARK    2  A    between atoms: C5_7  and  N3_8 
REMARK    3  A    between atoms: C6_10  and  C7_11 
ROOT
HETATM    1  C4  UNK     1      20.828  69.788   5.418  1.00  0.00     0.132 A 
HETATM    2  N2  UNK     1      20.795  70.279   6.714  1.00  0.00    -0.060 NA
HETATM    3  C5  UNK     1      22.024  70.627   6.991  1.00  0.00     0.699 A 
HETATM    4  N4  UNK     1      22.847  70.428   5.917  1.00  0.00    -0.187 N 
HETATM    5  C6  UNK     1      22.105  69.922   4.869  1.00  0.00     0.091 A 
HETATM    6  H6  UNK     1      23.833  70.624   5.905  1.00  0.00     0.184 HD
ENDROOT
BRANCH   5   7
HETATM    7  C7  UNK     1      22.677  69.627   3.553  1.00  0.00    -0.004 A 
HETATM    8  C8  UNK     1      21.879  69.602   2.408  1.00  0.00     0.016 A 
HETATM    9  C9  UNK     1      22.463  69.440   1.146  1.00  0.00     0.035 A 
HETATM   10  C10 UNK     1      23.833  69.291   0.996  1.00  0.00     0.085 A 
HETATM   11  N5  UNK     1      24.366  69.210  -0.240  1.00  0.00    -0.257 NA
HETATM   12  C13 UNK     1      24.644  69.227   2.154  1.00  0.00     0.086 A 
HETATM   13  C11 UNK     1      25.704  69.043  -0.305  1.00  0.00     0.136 A 
HETATM   14  C12 UNK     1      26.488  68.927   0.824  1.00  0.00     0.136 A 
HETATM   15  N6  UNK     1      25.976  69.025   2.067  1.00  0.00    -0.257 NA
HETATM   16  C14 UNK     1      24.051  69.390   3.399  1.00  0.00     0.048 A 
ENDBRANCH   5   7
BRANCH   1  17
HETATM   17  C3  UNK     1      19.647  69.228   4.768  1.00  0.00     0.089 A 
HETATM   18  N1  UNK     1      19.141  69.907   3.707  1.00  0.00    -0.248 NA
HETATM   19  C2  UNK     1      17.989  69.457   3.148  1.00  0.00     0.070 A 
HETATM   20  C1  UNK     1      17.423  70.246   2.009  1.00  0.00     0.074 C 
HETATM   21  C17 UNK     1      17.344  68.314   3.604  1.00  0.00     0.140 A 
HETATM   22  C16 UNK     1      17.888  67.603   4.664  1.00  0.00     0.047 A 
HETATM   23  F1  UNK     1      16.204  67.896   3.038  1.00  0.00    -0.204 F 
HETATM   24  C15 UNK     1      19.062  68.064   5.258  1.00  0.00     0.037 A 
ENDBRANCH   1  17
BRANCH   3  25
HETATM   25  N3  UNK     1      22.493  71.103   8.142  1.00  0.00    -0.233 N 
HETATM   26  H4  UNK     1      23.377  70.720   8.472  1.00  0.00     0.174 HD
HETATM   27  H5  UNK     1      21.908  71.493   8.869  1.00  0.00     0.174 HD
ENDBRANCH   3  25
TORSDOF 3
ENDMDL
MODEL 6
REMARK VINA RESULT:      -8.8      4.486      7.539
REMARK  3 active torsions:
REMARK  status: ('A' for Active; 'I' for Inactive)
REMARK    1  A    between atoms: C3_4  and  C4_5 
REMARK    2  A    between atoms: C5_7  and  N3_8 
REMARK    3  A    between atoms: C6_10  and  C7_11 
ROOT
HETATM    1  C4  UNK     1      18.625  67.964  11.169  1.00  0.00     0.132 A 
HETATM    2  N2  UNK     1      18.717  67.741  12.534  1.00  0.00    -0.060 NA
HETATM    3  C5  UNK     1      17.499  67.480  12.931  1.00  0.00     0.699 A 
HETATM    4  N4  UNK     1      16.627  67.477  11.879  1.00  0.00    -0.187 N 
HETATM    5  C6  UNK     1      17.322  67.749  10.718  1.00  0.00     0.091 A 
HETATM    6  H6  UNK     1      15.639  67.303  11.952  1.00  0.00     0.184 HD
ENDROOT
BRANCH   5   7
HETATM    7  C7  UNK     1      16.689  67.788   9.397  1.00  0.00    -0.004 A 
HETATM    8  C8  UNK     1      16.558  68.985   8.693  1.00  0.00     0.016 A 
HETATM    9  C9  UNK     1      16.063  68.983   7.384  1.00  0.00     0.035 A 
HETATM   10  C10 UNK     1      15.682  67.807   6.756  1.00  0.00     0.085 A 
HETATM   11  N5  UNK     1      15.278  67.836   5.470  1.00  0.00    -0.257 NA
HETATM   12  C13 UNK     1      15.727  66.597   7.488  1.00  0.00     0.086 A 
HETATM   13  C11 UNK     1      14.901  66.655   4.934  1.00  0.00     0.136 A 
HETATM   14  C12 UNK     1      14.895  65.484   5.663  1.00  0.00     0.136 A 
HETATM   15  N6  UNK     1      15.313  65.433   6.944  1.00  0.00    -0.257 NA
HETATM   16  C14 UNK     1      16.221  66.615   8.786  1.00  0.00     0.048 A 
ENDBRANCH   5   7
BRANCH   1  17
HETATM   17  C3  UNK     1      19.778  68.360  10.367  1.00  0.00     0.089 A 
HETATM   18  N1  UNK     1      20.492  69.435  10.793  1.00  0.00    -0.248 NA
HETATM   19  C2  UNK     1      21.510  69.878  10.012  1.00  0.00     0.070 A 
HETATM   20  C1  UNK     1      22.254  71.091  10.476  1.00  0.00     0.074 C 
HETATM   21  C17 UNK     1      21.858  69.249   8.824  1.00  0.00     0.140 A 
HETATM   22  C16 UNK     1      21.150  68.128   8.415  1.00  0.00     0.047 A 
HETATM   23  F1  UNK     1      22.863  69.713   8.069  1.00  0.00    -0.204 F 
HETATM   24  C15 UNK     1      20.091  67.671   9.199  1.00  0.00     0.037 A 
ENDBRANCH   1  17
BRANCH   3  25
HETATM   25  N3  UNK     1      17.083  67.252  14.176  1.00  0.00    -0.233 N 
HETATM   26  H4  UNK     1      16.728  66.320  14.377  1.00  0.00     0.174 HD
HETATM   27  H5  UNK     1      16.742  67.975  14.795  1.00  0.00     0.174 HD
ENDBRANCH   3  25
TORSDOF 3
ENDMDL
MODEL 7
REMARK VINA RESULT:      -8.7      3.242      5.581
REMARK  3 active torsions:
REMARK  status: ('A' for Active; 'I' for Inactive)
REMARK    1  A    between atoms: C3_4  and  C4_5 
REMARK    2  A    between atoms: C5_7  and  N3_8 
REMARK    3  A    between atoms: C6_10  and  C7_11 
ROOT
HETATM    1  C4  UNK     1      17.676  68.441   4.603  1.00  0.00     0.132 A 
HETATM    2  N2  UNK     1      17.389  68.641   3.261  1.00  0.00    -0.060 NA
HETATM    3  C5  UNK     1      18.483  69.129   2.736  1.00  0.00     0.699 A 
HETATM    4  N4  UNK     1      19.482  69.212   3.665  1.00  0.00    -0.187 N 
HETATM    5  C6  UNK     1      19.012  68.742   4.875  1.00  0.00     0.091 A 
HETATM    6  H6  UNK     1      20.408  69.560   3.483  1.00  0.00     0.184 HD
ENDROOT
BRANCH   5   7
HETATM    7  C7  UNK     1      19.843  68.661   6.079  1.00  0.00    -0.004 A 
HETATM    8  C8  UNK     1      19.922  67.483   6.824  1.00  0.00     0.016 A 
HETATM    9  C9  UNK     1      20.813  67.388   7.898  1.00  0.00     0.035 A 
HETATM   10  C10 UNK     1      21.630  68.449   8.258  1.00  0.00     0.085 A 
HETATM   11  N5  UNK     1      22.527  68.296   9.253  1.00  0.00    -0.257 NA
HETATM   12  C13 UNK     1      21.498  69.677   7.567  1.00  0.00     0.086 A 
HETATM   13  C11 UNK     1      23.270  69.380   9.561  1.00  0.00     0.136 A 
HETATM   14  C12 UNK     1      23.105  70.592   8.924  1.00  0.00     0.136 A 
HETATM   15  N6  UNK     1      22.226  70.759   7.915  1.00  0.00    -0.257 NA
HETATM   16  C14 UNK     1      20.609  69.757   6.503  1.00  0.00     0.048 A 
ENDBRANCH   5   7
BRANCH   1  17
HETATM   17  C3  UNK     1      16.672  67.968   5.550  1.00  0.00     0.089 A 
HETATM   18  N1  UNK     1      16.541  68.659   6.713  1.00  0.00    -0.248 NA
HETATM   19  C2  UNK     1      15.681  68.181   7.648  1.00  0.00     0.070 A 
HETATM   20  C1  UNK     1      15.585  68.930   8.940  1.00  0.00     0.074 C 
HETATM   21  C17 UNK     1      14.916  67.041   7.435  1.00  0.00     0.140 A 
HETATM   22  C16 UNK     1      15.026  66.363   6.230  1.00  0.00     0.047 A 
HETATM   23  F1  UNK     1      14.080  66.588   8.379  1.00  0.00    -0.204 F 
HETATM   24  C15 UNK     1      15.918  66.834   5.266  1.00  0.00     0.037 A 
ENDBRANCH   1  17
BRANCH   3  25
HETATM   25  N3  UNK     1      18.671  69.528   1.480  1.00  0.00    -0.233 N 
HETATM   26  H4  UNK     1      17.852  69.544   0.876  1.00  0.00     0.174 HD
HETATM   27  H5  UNK     1      19.552  69.449   0.991  1.00  0.00     0.174 HD
ENDBRANCH   3  25
TORSDOF 3
ENDMDL
MODEL 8
REMARK VINA RESULT:      -8.7      2.815      6.318
REMARK  3 active torsions:
REMARK  status: ('A' for Active; 'I' for Inactive)
REMARK    1  A    between atoms: C3_4  and  C4_5 
REMARK    2  A    between atoms: C5_7  and  N3_8 
REMARK    3  A    between atoms: C6_10  and  C7_11 
ROOT
HETATM    1  C4  UNK     1      19.808  69.043   3.977  1.00  0.00     0.132 A 
HETATM    2  N2  UNK     1      20.835  69.487   3.159  1.00  0.00    -0.060 NA
HETATM    3  C5  UNK     1      21.891  69.561   3.928  1.00  0.00     0.699 A 
HETATM    4  N4  UNK     1      21.607  69.142   5.197  1.00  0.00    -0.187 N 
HETATM    5  C6  UNK     1      20.281  68.764   5.261  1.00  0.00     0.091 A 
HETATM    6  H6  UNK     1      22.267  69.117   5.955  1.00  0.00     0.184 HD
ENDROOT
BRANCH   5   7
HETATM    7  C7  UNK     1      19.658  68.230   6.475  1.00  0.00    -0.004 A 
HETATM    8  C8  UNK     1      20.231  67.167   7.174  1.00  0.00     0.016 A 
HETATM    9  C9  UNK     1      19.689  66.753   8.395  1.00  0.00     0.035 A 
HETATM   10  C10 UNK     1      18.574  67.371   8.940  1.00  0.00     0.085 A 
HETATM   11  N5  UNK     1      18.123  66.992  10.152  1.00  0.00    -0.257 NA
HETATM   12  C13 UNK     1      17.931  68.392   8.201  1.00  0.00     0.086 A 
HETATM   13  C11 UNK     1      17.020  67.624  10.606  1.00  0.00     0.136 A 
HETATM   14  C12 UNK     1      16.362  68.582   9.862  1.00  0.00     0.136 A 
HETATM   15  N6  UNK     1      16.808  68.987   8.656  1.00  0.00    -0.257 NA
HETATM   16  C14 UNK     1      18.480  68.793   6.990  1.00  0.00     0.048 A 
ENDBRANCH   5   7
BRANCH   1  17
HETATM   17  C3  UNK     1      18.437  68.901   3.496  1.00  0.00     0.089 A 
HETATM   18  N1  UNK     1      17.676  67.931   4.066  1.00  0.00    -0.248 NA
HETATM   19  C2  UNK     1      16.431  67.718   3.568  1.00  0.00     0.070 A 
HETATM   20  C1  UNK     1      15.626  66.614   4.180  1.00  0.00     0.074 C 
HETATM   21  C17 UNK     1      15.910  68.480   2.530  1.00  0.00     0.140 A 
HETATM   22  C16 UNK     1      16.679  69.495   1.979  1.00  0.00     0.047 A 
HETATM   23  F1  UNK     1      14.680  68.243   2.054  1.00  0.00    -0.204 F 
HETATM   24  C15 UNK     1      17.966  69.714   2.470  1.00  0.00     0.037 A 
ENDBRANCH   1  17
BRANCH   3  25
HETATM   25  N3  UNK     1      23.107  69.991   3.597  1.00  0.00    -0.233 N 
HETATM   26  H4  UNK     1      23.750  69.300   3.216  1.00  0.00     0.174 HD
HETATM   27  H5  UNK     1      23.554  70.792   4.020  1.00  0.00     0.174 HD
ENDBRANCH   3  25
TORSDOF 3
ENDMDL
MODEL 9
REMARK VINA RESULT:      -8.4      3.850      5.987
REMARK  3 active torsions:
REMARK  status: ('A' for Active; 'I' for Inactive)
REMARK    1  A    between atoms: C3_4  and  C4_5 
REMARK    2  A    between atoms: C5_7  and  N3_8 
REMARK    3  A    between atoms: C6_10  and  C7_11 
ROOT
HETATM    1  C4  UNK     1      18.331  68.612   5.321  1.00  0.00     0.132 A 
HETATM    2  N2  UNK     1      18.160  68.764   3.954  1.00  0.00    -0.060 NA
HETATM    3  C5  UNK     1      19.296  69.234   3.508  1.00  0.00     0.699 A 
HETATM    4  N4  UNK     1      20.212  69.351   4.515  1.00  0.00    -0.187 N 
HETATM    5  C6  UNK     1      19.639  68.923   5.696  1.00  0.00     0.091 A 
HETATM    6  H6  UNK     1      21.150  69.694   4.402  1.00  0.00     0.184 HD
ENDROOT
BRANCH   5   7
HETATM    7  C7  UNK     1      20.363  68.885   6.969  1.00  0.00    -0.004 A 
HETATM    8  C8  UNK     1      20.414  67.720   7.737  1.00  0.00     0.016 A 
HETATM    9  C9  UNK     1      21.210  67.668   8.886  1.00  0.00     0.035 A 
HETATM   10  C10 UNK     1      21.958  68.760   9.299  1.00  0.00     0.085 A 
HETATM   11  N5  UNK     1      22.770  68.649  10.370  1.00  0.00    -0.257 NA
HETATM   12  C13 UNK     1      21.849  69.974   8.580  1.00  0.00     0.086 A 
HETATM   13  C11 UNK     1      23.448  69.761  10.725  1.00  0.00     0.136 A 
HETATM   14  C12 UNK     1      23.301  70.959  10.056  1.00  0.00     0.136 A 
HETATM   15  N6  UNK     1      22.509  71.084   8.972  1.00  0.00    -0.257 NA
HETATM   16  C14 UNK     1      21.054  70.011   7.441  1.00  0.00     0.048 A 
ENDBRANCH   5   7
BRANCH   1  17
HETATM   17  C3  UNK     1      17.248  68.171   6.195  1.00  0.00     0.089 A 
HETATM   18  N1  UNK     1      16.569  67.053   5.828  1.00  0.00    -0.248 NA
HETATM   19  C2  UNK     1      15.498  66.680   6.573  1.00  0.00     0.070 A 
HETATM   20  C1  UNK     1      14.736  65.472   6.125  1.00  0.00     0.074 C 
HETATM   21  C17 UNK     1      15.106  67.380   7.707  1.00  0.00     0.140 A 
HETATM   22  C16 UNK     1      15.828  68.499   8.098  1.00  0.00     0.047 A 
HETATM   23  F1  UNK     1      14.040  66.993   8.421  1.00  0.00    -0.204 F 
HETATM   24  C15 UNK     1      16.921  68.903   7.332  1.00  0.00     0.037 A 
ENDBRANCH   1  17
BRANCH   3  25
HETATM   25  N3  UNK     1      19.592  69.590   2.259  1.00  0.00    -0.233 N 
HETATM   26  H4  UNK     1      20.239  68.990   1.752  1.00  0.00     0.174 HD
HETATM   27  H5  UNK     1      19.548  70.542   1.921  1.00  0.00     0.174 HD
ENDBRANCH   3  25
TORSDOF 3
ENDMDL
MODEL 10
REMARK VINA RESULT:      -8.3      2.279      3.573
REMARK  3 active torsions:
REMARK  status: ('A' for Active; 'I' for Inactive)
REMARK    1  A    between atoms: C3_4  and  C4_5 
REMARK    2  A    between atoms: C5_7  and  N3_8 
REMARK    3  A    between atoms: C6_10  and  C7_11 
ROOT
HETATM    1  C4  UNK     1      16.764  67.888   8.564  1.00  0.00     0.132 A 
HETATM    2  N2  UNK     1      16.117  67.603   9.756  1.00  0.00    -0.060 NA
HETATM    3  C5  UNK     1      16.962  67.925  10.701  1.00  0.00     0.699 A 
HETATM    4  N4  UNK     1      18.111  68.449  10.177  1.00  0.00    -0.187 N 
HETATM    5  C6  UNK     1      18.007  68.476   8.801  1.00  0.00     0.091 A 
HETATM    6  H6  UNK     1      18.899  68.762  10.719  1.00  0.00     0.184 HD
ENDROOT
BRANCH   5   7
HETATM    7  C7  UNK     1      19.056  69.013   7.930  1.00  0.00    -0.004 A 
HETATM    8  C8  UNK     1      20.102  69.780   8.446  1.00  0.00     0.016 A 
HETATM    9  C9  UNK     1      21.158  70.179   7.619  1.00  0.00     0.035 A 
HETATM   10  C10 UNK     1      21.194  69.837   6.275  1.00  0.00     0.085 A 
HETATM   11  N5  UNK     1      22.263  70.179   5.527  1.00  0.00    -0.257 NA
HETATM   12  C13 UNK     1      20.099  69.135   5.720  1.00  0.00     0.086 A 
HETATM   13  C11 UNK     1      22.216  69.832   4.223  1.00  0.00     0.136 A 
HETATM   14  C12 UNK     1      21.125  69.194   3.670  1.00  0.00     0.136 A 
HETATM   15  N6  UNK     1      20.056  68.829   4.406  1.00  0.00    -0.257 NA
HETATM   16  C14 UNK     1      19.058  68.745   6.553  1.00  0.00     0.048 A 
ENDBRANCH   5   7
BRANCH   1  17
HETATM   17  C3  UNK     1      16.165  67.594   7.265  1.00  0.00     0.089 A 
HETATM   18  N1  UNK     1      15.897  66.292   6.985  1.00  0.00    -0.248 NA
HETATM   19  C2  UNK     1      15.429  65.986   5.749  1.00  0.00     0.070 A 
HETATM   20  C1  UNK     1      15.185  64.540   5.444  1.00  0.00     0.074 C 
HETATM   21  C17 UNK     1      15.186  66.959   4.788  1.00  0.00     0.140 A 
HETATM   22  C16 UNK     1      15.425  68.291   5.095  1.00  0.00     0.047 A 
HETATM   23  F1  UNK     1      14.731  66.628   3.572  1.00  0.00    -0.204 F 
HETATM   24  C15 UNK     1      15.921  68.618   6.356  1.00  0.00     0.037 A 
ENDBRANCH   1  17
BRANCH   3  25
HETATM   25  N3  UNK     1      16.805  67.779  12.015  1.00  0.00    -0.233 N 
HETATM   26  H4  UNK     1      16.766  66.825  12.369  1.00  0.00     0.174 HD
HETATM   27  H5  UNK     1      16.357  68.465  12.607  1.00  0.00     0.174 HD
ENDBRANCH   3  25
TORSDOF 3
ENDMDL
