MODEL 1
REMARK VINA RESULT:     -10.0      0.000      0.000
REMARK  3 active torsions:
REMARK  status: ('A' for Active; 'I' for Inactive)
REMARK    1  A    between atoms: C6_6  and  C7_7 
REMARK    2  A    between atoms: C8_9  and  N2_10 
REMARK    3  A    between atoms: C9_12  and  C10_13 
ROOT
HETATM    1  C7  UNK     1      15.392  66.099   6.783  1.00  0.00     0.106 A 
HETATM    2  N1  UNK     1      15.009  65.902   8.112  1.00  0.00    -0.221 NA
HETATM    3  C8  UNK     1      15.737  66.639   8.905  1.00  0.00     0.165 A 
HETATM    4  S1  UNK     1      16.914  67.609   8.140  1.00  0.00    -0.050 SA
HETATM    5  C9  UNK     1      16.405  67.041   6.586  1.00  0.00     0.050 A 
ENDROOT
BRANCH   5   6
HETATM    6  C10 UNK     1      17.015  67.621   5.370  1.00  0.00    -0.014 A 
HETATM    7  C11 UNK     1      16.259  67.914   4.228  1.00  0.00     0.015 A 
HETATM    8  C12 UNK     1      16.865  68.470   3.095  1.00  0.00     0.035 A 
HETATM    9  C13 UNK     1      18.218  68.776   3.074  1.00  0.00     0.085 A 
HETATM   10  N3  UNK     1      18.766  69.339   1.976  1.00  0.00    -0.257 NA
HETATM   11  C16 UNK     1      18.996  68.493   4.219  1.00  0.00     0.086 A 
HETATM   12  C14 UNK     1      20.082  69.632   2.044  1.00  0.00     0.136 A 
HETATM   13  C15 UNK     1      20.835  69.375   3.168  1.00  0.00     0.136 A 
HETATM   14  N4  UNK     1      20.311  68.795   4.269  1.00  0.00    -0.257 NA
HETATM   15  C17 UNK     1      18.391  67.893   5.317  1.00  0.00     0.046 A 
ENDBRANCH   5   6
BRANCH   1  16
HETATM   16  C6  UNK     1      14.692  65.387   5.711  1.00  0.00     0.087 A 
HETATM   17  C5  UNK     1      15.410  64.815   4.667  1.00  0.00     0.034 A 
HETATM   18  C4  UNK     1      14.735  64.009   3.756  1.00  0.00     0.004 A 
HETATM   19  C3  UNK     1      13.369  63.796   3.915  1.00  0.00     0.027 A 
HETATM   20  C2  UNK     1      12.710  64.427   4.963  1.00  0.00     0.031 A 
HETATM   21  C1  UNK     1      11.258  64.176   5.231  1.00  0.00     0.070 C 
HETATM   22  N5  UNK     1      13.351  65.235   5.840  1.00  0.00    -0.252 NA
ENDBRANCH   1  16
BRANCH   3  23
HETATM   23  N2  UNK     1      15.588  66.649  10.240  1.00  0.00    -0.378 N 
HETATM   24  H7  UNK     1      15.558  65.741  10.687  1.00  0.00     0.158 HD
HETATM   25  H8  UNK     1      16.076  67.362  10.768  1.00  0.00     0.158 HD
ENDBRANCH   3  23
TORSDOF 3
ENDMDL
MODEL 2
REMARK VINA RESULT:     -10.0      1.636      6.475
REMARK  3 active torsions:
REMARK  status: ('A' for Active; 'I' for Inactive)
REMARK    1  A    between atoms: C6_6  and  C7_7 
REMARK    2  A    between atoms: C8_9  and  N2_10 
REMARK    3  A    between atoms: C9_12  and  C10_13 
ROOT
HETATM    1  C7  UNK     1      16.761  67.324   5.686  1.00  0.00     0.106 A 
HETATM    2  N1  UNK     1      17.626  67.773   6.687  1.00  0.00    -0.221 NA
HETATM    3  C8  UNK     1      17.358  67.177   7.816  1.00  0.00     0.165 A 
HETATM    4  S1  UNK     1      16.076  66.051   7.772  1.00  0.00    -0.050 SA
HETATM    5  C9  UNK     1      15.855  66.336   6.079  1.00  0.00     0.050 A 
ENDROOT
BRANCH   5   6
HETATM    6  C10 UNK     1      14.867  65.525   5.333  1.00  0.00    -0.014 A 
HETATM    7  C11 UNK     1      15.246  64.660   4.299  1.00  0.00     0.015 A 
HETATM    8  C12 UNK     1      14.287  63.902   3.617  1.00  0.00     0.035 A 
HETATM    9  C13 UNK     1      12.943  63.955   3.960  1.00  0.00     0.085 A 
HETATM   10  N3  UNK     1      12.048  63.187   3.302  1.00  0.00    -0.257 NA
HETATM   11  C16 UNK     1      12.543  64.817   5.005  1.00  0.00     0.086 A 
HETATM   12  C14 UNK     1      10.765  63.275   3.713  1.00  0.00     0.136 A 
HETATM   13  C15 UNK     1      10.378  64.100   4.745  1.00  0.00     0.136 A 
HETATM   14  N4  UNK     1      11.255  64.890   5.403  1.00  0.00    -0.257 NA
HETATM   15  C17 UNK     1      13.499  65.603   5.637  1.00  0.00     0.046 A 
ENDBRANCH   5   6
BRANCH   1  16
HETATM   16  C6  UNK     1      16.894  67.844   4.323  1.00  0.00     0.087 A 
HETATM   17  C5  UNK     1      15.768  68.002   3.523  1.00  0.00     0.034 A 
HETATM   18  C4  UNK     1      15.906  68.648   2.298  1.00  0.00     0.004 A 
HETATM   19  C3  UNK     1      17.157  69.119   1.912  1.00  0.00     0.027 A 
HETATM   20  C2  UNK     1      18.244  68.895   2.748  1.00  0.00     0.031 A 
HETATM   21  C1  UNK     1      19.600  69.443   2.422  1.00  0.00     0.070 C 
HETATM   22  N5  UNK     1      18.128  68.244   3.929  1.00  0.00    -0.252 NA
ENDBRANCH   1  16
BRANCH   3  23
HETATM   23  N2  UNK     1      18.033  67.417   8.952  1.00  0.00    -0.378 N 
HETATM   24  H7  UNK     1      17.487  67.384   9.804  1.00  0.00     0.158 HD
HETATM   25  H8  UNK     1      18.969  67.042   9.037  1.00  0.00     0.158 HD
ENDBRANCH   3  23
TORSDOF 3
ENDMDL
MODEL 3
REMARK VINA RESULT:      -9.6      2.175      6.685
REMARK  3 active torsions:
REMARK  status: ('A' for Active; 'I' for Inactive)
REMARK    1  A    between atoms: C6_6  and  C7_7 
REMARK    2  A    between atoms: C8_9  and  N2_10 
REMARK    3  A    between atoms: C9_12  and  C10_13 
ROOT
HETATM    1  C7  UNK     1      18.063  68.251   4.949  1.00  0.00     0.106 A 
HETATM    2  N1  UNK     1      18.812  69.206   4.257  1.00  0.00    -0.221 NA
HETATM    3  C8  UNK     1      18.280  69.436   3.088  1.00  0.00     0.165 A 
HETATM    4  S1  UNK     1      16.867  68.548   2.731  1.00  0.00    -0.050 SA
HETATM    5  C9  UNK     1      16.920  67.794   4.288  1.00  0.00     0.050 A 
ENDROOT
BRANCH   5   6
HETATM    6  C10 UNK     1      15.817  66.896   4.694  1.00  0.00    -0.014 A 
HETATM    7  C11 UNK     1      15.173  67.024   5.930  1.00  0.00     0.015 A 
HETATM    8  C12 UNK     1      14.127  66.161   6.281  1.00  0.00     0.035 A 
HETATM    9  C13 UNK     1      13.674  65.179   5.411  1.00  0.00     0.085 A 
HETATM   10  N3  UNK     1      12.644  64.383   5.768  1.00  0.00    -0.257 NA
HETATM   11  C16 UNK     1      14.309  65.039   4.156  1.00  0.00     0.086 A 
HETATM   12  C14 UNK     1      12.246  63.471   4.857  1.00  0.00     0.136 A 
HETATM   13  C15 UNK     1      12.850  63.349   3.626  1.00  0.00     0.136 A 
HETATM   14  N4  UNK     1      13.895  64.122   3.257  1.00  0.00    -0.257 NA
HETATM   15  C17 UNK     1      15.380  65.867   3.844  1.00  0.00     0.046 A 
ENDBRANCH   5   6
BRANCH   1  16
HETATM   16  C6  UNK     1      18.465  67.852   6.300  1.00  0.00     0.087 A 
HETATM   17  C5  UNK     1      19.698  67.245   6.512  1.00  0.00     0.034 A 
HETATM   18  C4  UNK     1      20.118  67.027   7.820  1.00  0.00     0.004 A 
HETATM   19  C3  UNK     1      19.301  67.424   8.874  1.00  0.00     0.027 A 
HETATM   20  C2  UNK     1      18.067  67.995   8.587  1.00  0.00     0.031 A 
HETATM   21  C1  UNK     1      17.178  68.511   9.677  1.00  0.00     0.070 C 
HETATM   22  N5  UNK     1      17.635  68.187   7.319  1.00  0.00    -0.252 NA
ENDBRANCH   1  16
BRANCH   3  23
HETATM   23  N2  UNK     1      18.794  70.310   2.207  1.00  0.00    -0.378 N 
HETATM   24  H7  UNK     1      19.415  69.919   1.510  1.00  0.00     0.158 HD
HETATM   25  H8  UNK     1      18.193  71.051   1.867  1.00  0.00     0.158 HD
ENDBRANCH   3  23
TORSDOF 3
ENDMDL
MODEL 4
REMARK VINA RESULT:      -9.0      1.707      4.040
REMARK  3 active torsions:
REMARK  status: ('A' for Active; 'I' for Inactive)
REMARK    1  A    between atoms: C6_6  and  C7_7 
REMARK    2  A    between atoms: C8_9  and  N2_10 
REMARK    3  A    between atoms: C9_12  and  C10_13 
ROOT
HETATM    1  C7  UNK     1      15.020  66.624   6.261  1.00  0.00     0.106 A 
HETATM    2  N1  UNK     1      14.019  65.689   6.536  1.00  0.00    -0.221 NA
HETATM    3  C8  UNK     1      13.635  65.102   5.436  1.00  0.00     0.165 A 
HETATM    4  S1  UNK     1      14.429  65.608   4.012  1.00  0.00    -0.050 SA
HETATM    5  C9  UNK     1      15.418  66.697   4.924  1.00  0.00     0.050 A 
ENDROOT
BRANCH   5   6
HETATM    6  C10 UNK     1      16.491  67.447   4.236  1.00  0.00    -0.014 A 
HETATM    7  C11 UNK     1      16.268  68.126   3.032  1.00  0.00     0.015 A 
HETATM    8  C12 UNK     1      17.304  68.832   2.409  1.00  0.00     0.035 A 
HETATM    9  C13 UNK     1      18.570  68.910   2.973  1.00  0.00     0.085 A 
HETATM   10  N3  UNK     1      19.539  69.624   2.362  1.00  0.00    -0.257 NA
HETATM   11  C16 UNK     1      18.812  68.236   4.191  1.00  0.00     0.086 A 
HETATM   12  C14 UNK     1      20.734  69.674   2.988  1.00  0.00     0.136 A 
HETATM   13  C15 UNK     1      20.964  69.034   4.186  1.00  0.00     0.136 A 
HETATM   14  N4  UNK     1      20.014  68.298   4.804  1.00  0.00    -0.257 NA
HETATM   15  C17 UNK     1      17.788  67.495   4.770  1.00  0.00     0.046 A 
ENDBRANCH   5   6
BRANCH   1  16
HETATM   16  C6  UNK     1      15.619  67.390   7.356  1.00  0.00     0.087 A 
HETATM   17  C5  UNK     1      15.743  68.772   7.255  1.00  0.00     0.034 A 
HETATM   18  C4  UNK     1      16.164  69.487   8.372  1.00  0.00     0.004 A 
HETATM   19  C3  UNK     1      16.442  68.806   9.554  1.00  0.00     0.027 A 
HETATM   20  C2  UNK     1      16.328  67.421   9.571  1.00  0.00     0.031 A 
HETATM   21  C1  UNK     1      16.541  66.640  10.832  1.00  0.00     0.070 C 
HETATM   22  N5  UNK     1      15.947  66.711   8.483  1.00  0.00    -0.252 NA
ENDBRANCH   1  16
BRANCH   3  23
HETATM   23  N2  UNK     1      12.681  64.157   5.402  1.00  0.00    -0.378 N 
HETATM   24  H7  UNK     1      13.010  63.201   5.351  1.00  0.00     0.158 HD
HETATM   25  H8  UNK     1      11.860  64.290   5.979  1.00  0.00     0.158 HD
ENDBRANCH   3  23
TORSDOF 3
ENDMDL
MODEL 5
REMARK VINA RESULT:      -8.9      2.587      5.630
REMARK  3 active torsions:
REMARK  status: ('A' for Active; 'I' for Inactive)
REMARK    1  A    between atoms: C6_6  and  C7_7 
REMARK    2  A    between atoms: C8_9  and  N2_10 
REMARK    3  A    between atoms: C9_12  and  C10_13 
ROOT
HETATM    1  C7  UNK     1      15.878  66.942   4.305  1.00  0.00     0.106 A 
HETATM    2  N1  UNK     1      14.877  66.237   3.631  1.00  0.00    -0.221 NA
HETATM    3  C8  UNK     1      14.221  65.478   4.465  1.00  0.00     0.165 A 
HETATM    4  S1  UNK     1      14.737  65.546   6.091  1.00  0.00    -0.050 SA
HETATM    5  C9  UNK     1      15.935  66.728   5.684  1.00  0.00     0.050 A 
ENDROOT
BRANCH   5   6
HETATM    6  C10 UNK     1      16.742  67.339   6.763  1.00  0.00    -0.014 A 
HETATM    7  C11 UNK     1      16.210  68.293   7.638  1.00  0.00     0.015 A 
HETATM    8  C12 UNK     1      16.998  68.847   8.654  1.00  0.00     0.035 A 
HETATM    9  C13 UNK     1      18.314  68.451   8.847  1.00  0.00     0.085 A 
HETATM   10  N3  UNK     1      19.039  68.983   9.855  1.00  0.00    -0.257 NA
HETATM   11  C16 UNK     1      18.867  67.484   7.977  1.00  0.00     0.086 A 
HETATM   12  C14 UNK     1      20.301  68.525   9.994  1.00  0.00     0.136 A 
HETATM   13  C15 UNK     1      20.832  67.568   9.159  1.00  0.00     0.136 A 
HETATM   14  N4  UNK     1      20.131  67.037   8.133  1.00  0.00    -0.257 NA
HETATM   15  C17 UNK     1      18.088  66.982   6.942  1.00  0.00     0.046 A 
ENDBRANCH   5   6
BRANCH   1  16
HETATM   16  C6  UNK     1      16.730  67.877   3.567  1.00  0.00     0.087 A 
HETATM   17  C5  UNK     1      16.194  68.654   2.545  1.00  0.00     0.034 A 
HETATM   18  C4  UNK     1      16.986  69.645   1.975  1.00  0.00     0.004 A 
HETATM   19  C3  UNK     1      18.283  69.835   2.443  1.00  0.00     0.027 A 
HETATM   20  C2  UNK     1      18.763  69.000   3.444  1.00  0.00     0.031 A 
HETATM   21  C1  UNK     1      20.123  69.204   4.040  1.00  0.00     0.070 C 
HETATM   22  N5  UNK     1      18.012  68.013   3.987  1.00  0.00    -0.252 NA
ENDBRANCH   1  16
BRANCH   3  23
HETATM   23  N2  UNK     1      13.203  64.686   4.092  1.00  0.00    -0.378 N 
HETATM   24  H7  UNK     1      13.330  63.695   4.260  1.00  0.00     0.158 HD
HETATM   25  H8  UNK     1      12.259  65.020   4.243  1.00  0.00     0.158 HD
ENDBRANCH   3  23
TORSDOF 3
ENDMDL
MODEL 6
REMARK VINA RESULT:      -8.8      3.522      5.788
REMARK  3 active torsions:
REMARK  status: ('A' for Active; 'I' for Inactive)
REMARK    1  A    between atoms: C6_6  and  C7_7 
REMARK    2  A    between atoms: C8_9  and  N2_10 
REMARK    3  A    between atoms: C9_12  and  C10_13 
ROOT
HETATM    1  C7  UNK     1      17.709  68.448   4.815  1.00  0.00     0.106 A 
HETATM    2  N1  UNK     1      17.532  68.667   3.446  1.00  0.00    -0.221 NA
HETATM    3  C8  UNK     1      18.624  69.151   2.921  1.00  0.00     0.165 A 
HETATM    4  S1  UNK     1      19.926  69.378   4.002  1.00  0.00    -0.050 SA
HETATM    5  C9  UNK     1      18.983  68.740   5.306  1.00  0.00     0.050 A 
ENDROOT
BRANCH   5   6
HETATM    6  C10 UNK     1      19.616  68.553   6.630  1.00  0.00    -0.014 A 
HETATM    7  C11 UNK     1      19.752  67.289   7.216  1.00  0.00     0.015 A 
HETATM    8  C12 UNK     1      20.362  67.145   8.468  1.00  0.00     0.035 A 
HETATM    9  C13 UNK     1      20.879  68.236   9.152  1.00  0.00     0.085 A 
HETATM   10  N3  UNK     1      21.488  68.059  10.344  1.00  0.00    -0.257 NA
HETATM   11  C16 UNK     1      20.756  69.519   8.573  1.00  0.00     0.086 A 
HETATM   12  C14 UNK     1      21.988  69.166  10.933  1.00  0.00     0.136 A 
HETATM   13  C15 UNK     1      21.887  70.413  10.359  1.00  0.00     0.136 A 
HETATM   14  N4  UNK     1      21.264  70.615   9.177  1.00  0.00    -0.257 NA
HETATM   15  C17 UNK     1      20.101  69.653   7.355  1.00  0.00     0.046 A 
ENDBRANCH   5   6
BRANCH   1  16
HETATM   16  C6  UNK     1      16.615  67.883   5.608  1.00  0.00     0.087 A 
HETATM   17  C5  UNK     1      15.967  66.728   5.182  1.00  0.00     0.034 A 
HETATM   18  C4  UNK     1      15.046  66.128   6.034  1.00  0.00     0.004 A 
HETATM   19  C3  UNK     1      14.803  66.692   7.284  1.00  0.00     0.027 A 
HETATM   20  C2  UNK     1      15.463  67.865   7.628  1.00  0.00     0.031 A 
HETATM   21  C1  UNK     1      15.300  68.477   8.986  1.00  0.00     0.070 C 
HETATM   22  N5  UNK     1      16.340  68.475   6.796  1.00  0.00    -0.252 NA
ENDBRANCH   1  16
BRANCH   3  23
HETATM   23  N2  UNK     1      18.739  69.459   1.619  1.00  0.00    -0.378 N 
HETATM   24  H7  UNK     1      18.074  70.137   1.267  1.00  0.00     0.158 HD
HETATM   25  H8  UNK     1      19.670  69.542   1.230  1.00  0.00     0.158 HD
ENDBRANCH   3  23
TORSDOF 3
ENDMDL
MODEL 7
REMARK VINA RESULT:      -8.3      2.007      2.890
REMARK  3 active torsions:
REMARK  status: ('A' for Active; 'I' for Inactive)
REMARK    1  A    between atoms: C6_6  and  C7_7 
REMARK    2  A    between atoms: C8_9  and  N2_10 
REMARK    3  A    between atoms: C9_12  and  C10_13 
ROOT
HETATM    1  C7  UNK     1      16.231  66.646   7.734  1.00  0.00     0.106 A 
HETATM    2  N1  UNK     1      15.491  66.234   8.846  1.00  0.00    -0.221 NA
HETATM    3  C8  UNK     1      16.203  66.354   9.932  1.00  0.00     0.165 A 
HETATM    4  S1  UNK     1      17.784  66.960   9.716  1.00  0.00    -0.050 SA
HETATM    5  C9  UNK     1      17.513  67.124   8.014  1.00  0.00     0.050 A 
ENDROOT
BRANCH   5   6
HETATM    6  C10 UNK     1      18.558  67.747   7.173  1.00  0.00    -0.014 A 
HETATM    7  C11 UNK     1      18.643  67.508   5.796  1.00  0.00     0.015 A 
HETATM    8  C12 UNK     1      19.640  68.118   5.026  1.00  0.00     0.035 A 
HETATM    9  C13 UNK     1      20.552  68.999   5.589  1.00  0.00     0.085 A 
HETATM   10  N3  UNK     1      21.483  69.595   4.813  1.00  0.00    -0.257 NA
HETATM   11  C16 UNK     1      20.479  69.258   6.976  1.00  0.00     0.086 A 
HETATM   12  C14 UNK     1      22.316  70.459   5.430  1.00  0.00     0.136 A 
HETATM   13  C15 UNK     1      22.230  70.727   6.778  1.00  0.00     0.136 A 
HETATM   14  N4  UNK     1      21.319  70.127   7.576  1.00  0.00    -0.257 NA
HETATM   15  C17 UNK     1      19.517  68.603   7.736  1.00  0.00     0.046 A 
ENDBRANCH   5   6
BRANCH   1  16
HETATM   16  C6  UNK     1      15.619  66.618   6.404  1.00  0.00     0.087 A 
HETATM   17  C5  UNK     1      15.407  67.803   5.707  1.00  0.00     0.034 A 
HETATM   18  C4  UNK     1      14.977  67.733   4.386  1.00  0.00     0.004 A 
HETATM   19  C3  UNK     1      14.778  66.487   3.799  1.00  0.00     0.027 A 
HETATM   20  C2  UNK     1      14.978  65.345   4.566  1.00  0.00     0.031 A 
HETATM   21  C1  UNK     1      14.853  63.977   3.968  1.00  0.00     0.070 C 
HETATM   22  N5  UNK     1      15.369  65.401   5.861  1.00  0.00    -0.252 NA
ENDBRANCH   1  16
BRANCH   3  23
HETATM   23  N2  UNK     1      15.744  66.029  11.151  1.00  0.00    -0.378 N 
HETATM   24  H7  UNK     1      15.048  65.293  11.178  1.00  0.00     0.158 HD
HETATM   25  H8  UNK     1      16.403  66.012  11.919  1.00  0.00     0.158 HD
ENDBRANCH   3  23
TORSDOF 3
ENDMDL
MODEL 8
REMARK VINA RESULT:      -8.2      2.402      6.212
REMARK  3 active torsions:
REMARK  status: ('A' for Active; 'I' for Inactive)
REMARK    1  A    between atoms: C6_6  and  C7_7 
REMARK    2  A    between atoms: C8_9  and  N2_10 
REMARK    3  A    between atoms: C9_12  and  C10_13 
ROOT
HETATM    1  C7  UNK     1      16.417  66.926   4.997  1.00  0.00     0.106 A 
HETATM    2  N1  UNK     1      15.715  66.316   3.955  1.00  0.00    -0.221 NA
HETATM    3  C8  UNK     1      14.776  65.546   4.432  1.00  0.00     0.165 A 
HETATM    4  S1  UNK     1      14.658  65.493   6.134  1.00  0.00    -0.050 SA
HETATM    5  C9  UNK     1      15.955  66.630   6.282  1.00  0.00     0.050 A 
ENDROOT
BRANCH   5   6
HETATM    6  C10 UNK     1      16.325  67.134   7.623  1.00  0.00    -0.014 A 
HETATM    7  C11 UNK     1      15.361  67.495   8.572  1.00  0.00     0.015 A 
HETATM    8  C12 UNK     1      15.744  67.962   9.835  1.00  0.00     0.035 A 
HETATM    9  C13 UNK     1      17.080  68.051  10.200  1.00  0.00     0.085 A 
HETATM   10  N3  UNK     1      17.415  68.477  11.437  1.00  0.00    -0.257 NA
HETATM   11  C16 UNK     1      18.067  67.685   9.257  1.00  0.00     0.086 A 
HETATM   12  C14 UNK     1      18.734  68.510  11.724  1.00  0.00     0.136 A 
HETATM   13  C15 UNK     1      19.694  68.132  10.812  1.00  0.00     0.136 A 
HETATM   14  N4  UNK     1      19.381  67.723   9.563  1.00  0.00    -0.257 NA
HETATM   15  C17 UNK     1      17.672  67.274   7.990  1.00  0.00     0.046 A 
ENDBRANCH   5   6
BRANCH   1  16
HETATM   16  C6  UNK     1      17.507  67.855   4.693  1.00  0.00     0.087 A 
HETATM   17  C5  UNK     1      18.788  67.612   5.176  1.00  0.00     0.034 A 
HETATM   18  C4  UNK     1      19.831  68.420   4.737  1.00  0.00     0.004 A 
HETATM   19  C3  UNK     1      19.568  69.442   3.829  1.00  0.00     0.027 A 
HETATM   20  C2  UNK     1      18.257  69.648   3.415  1.00  0.00     0.031 A 
HETATM   21  C1  UNK     1      17.923  70.682   2.383  1.00  0.00     0.070 C 
HETATM   22  N5  UNK     1      17.229  68.886   3.857  1.00  0.00    -0.252 NA
ENDBRANCH   1  16
BRANCH   3  23
HETATM   23  N2  UNK     1      13.945  64.833   3.655  1.00  0.00    -0.378 N 
HETATM   24  H7  UNK     1      12.956  64.997   3.801  1.00  0.00     0.158 HD
HETATM   25  H8  UNK     1      14.208  64.682   2.689  1.00  0.00     0.158 HD
ENDBRANCH   3  23
TORSDOF 3
ENDMDL
MODEL 9
REMARK VINA RESULT:      -8.2      2.838      6.256
REMARK  3 active torsions:
REMARK  status: ('A' for Active; 'I' for Inactive)
REMARK    1  A    between atoms: C6_6  and  C7_7 
REMARK    2  A    between atoms: C8_9  and  N2_10 
REMARK    3  A    between atoms: C9_12  and  C10_13 
ROOT
HETATM    1  C7  UNK     1      19.219  69.119   3.160  1.00  0.00     0.106 A 
HETATM    2  N1  UNK     1      19.994  69.501   2.061  1.00  0.00    -0.221 NA
HETATM    3  C8  UNK     1      21.244  69.628   2.413  1.00  0.00     0.165 A 
HETATM    4  S1  UNK     1      21.587  69.304   4.054  1.00  0.00    -0.050 SA
HETATM    5  C9  UNK     1      19.925  68.917   4.348  1.00  0.00     0.050 A 
ENDROOT
BRANCH   5   6
HETATM    6  C10 UNK     1      19.526  68.413   5.680  1.00  0.00    -0.014 A 
HETATM    7  C11 UNK     1      20.244  67.408   6.340  1.00  0.00     0.015 A 
HETATM    8  C12 UNK     1      19.843  66.958   7.604  1.00  0.00     0.035 A 
HETATM    9  C13 UNK     1      18.750  67.509   8.256  1.00  0.00     0.085 A 
HETATM   10  N3  UNK     1      18.407  67.074   9.487  1.00  0.00    -0.257 NA
HETATM   11  C16 UNK     1      18.016  68.529   7.608  1.00  0.00     0.086 A 
HETATM   12  C14 UNK     1      17.349  67.679  10.066  1.00  0.00     0.136 A 
HETATM   13  C15 UNK     1      16.647  68.687   9.443  1.00  0.00     0.136 A 
HETATM   14  N4  UNK     1      16.961  69.124   8.204  1.00  0.00    -0.257 NA
HETATM   15  C17 UNK     1      18.394  68.928   6.332  1.00  0.00     0.046 A 
ENDBRANCH   5   6
BRANCH   1  16
HETATM   16  C6  UNK     1      17.782  68.895   2.992  1.00  0.00     0.087 A 
HETATM   17  C5  UNK     1      17.078  69.579   2.005  1.00  0.00     0.034 A 
HETATM   18  C4  UNK     1      15.755  69.226   1.764  1.00  0.00     0.004 A 
HETATM   19  C3  UNK     1      15.174  68.203   2.508  1.00  0.00     0.027 A 
HETATM   20  C2  UNK     1      15.927  67.586   3.500  1.00  0.00     0.031 A 
HETATM   21  C1  UNK     1      15.384  66.430   4.282  1.00  0.00     0.070 C 
HETATM   22  N5  UNK     1      17.207  67.940   3.763  1.00  0.00    -0.252 NA
ENDBRANCH   1  16
BRANCH   3  23
HETATM   23  N2  UNK     1      22.215  69.988   1.558  1.00  0.00    -0.378 N 
HETATM   24  H7  UNK     1      22.975  70.527   1.956  1.00  0.00     0.158 HD
HETATM   25  H8  UNK     1      22.497  69.321   0.851  1.00  0.00     0.158 HD
ENDBRANCH   3  23
TORSDOF 3
ENDMDL
MODEL 10
REMARK VINA RESULT:      -8.2      2.637      4.264
REMARK  3 active torsions:
REMARK  status: ('A' for Active; 'I' for Inactive)
REMARK    1  A    between atoms: C6_6  and  C7_7 
REMARK    2  A    between atoms: C8_9  and  N2_10 
REMARK    3  A    between atoms: C9_12  and  C10_13 
ROOT
HETATM    1  C7  UNK     1      18.839  67.938   8.647  1.00  0.00     0.106 A 
HETATM    2  N1  UNK     1      19.434  67.859   9.909  1.00  0.00    -0.221 NA
HETATM    3  C8  UNK     1      20.714  68.096   9.820  1.00  0.00     0.165 A 
HETATM    4  S1  UNK     1      21.297  68.429   8.251  1.00  0.00    -0.050 SA
HETATM    5  C9  UNK     1      19.699  68.285   7.602  1.00  0.00     0.050 A 
ENDROOT
BRANCH   5   6
HETATM    6  C10 UNK     1      19.471  68.581   6.171  1.00  0.00    -0.014 A 
HETATM    7  C11 UNK     1      20.490  69.066   5.342  1.00  0.00     0.015 A 
HETATM    8  C12 UNK     1      20.243  69.329   3.989  1.00  0.00     0.035 A 
HETATM    9  C13 UNK     1      19.000  69.092   3.419  1.00  0.00     0.085 A 
HETATM   10  N3  UNK     1      18.803  69.328   2.104  1.00  0.00    -0.257 NA
HETATM   11  C16 UNK     1      17.961  68.596   4.239  1.00  0.00     0.086 A 
HETATM   12  C14 UNK     1      17.576  69.046   1.620  1.00  0.00     0.136 A 
HETATM   13  C15 UNK     1      16.570  68.543   2.415  1.00  0.00     0.136 A 
HETATM   14  N4  UNK     1      16.740  68.318   3.736  1.00  0.00    -0.257 NA
HETATM   15  C17 UNK     1      18.207  68.390   5.591  1.00  0.00     0.046 A 
ENDBRANCH   5   6
BRANCH   1  16
HETATM   16  C6  UNK     1      17.396  67.728   8.510  1.00  0.00     0.087 A 
HETATM   17  C5  UNK     1      16.502  68.641   9.059  1.00  0.00     0.034 A 
HETATM   18  C4  UNK     1      15.148  68.502   8.773  1.00  0.00     0.004 A 
HETATM   19  C3  UNK     1      14.727  67.463   7.947  1.00  0.00     0.027 A 
HETATM   20  C2  UNK     1      15.674  66.569   7.461  1.00  0.00     0.031 A 
HETATM   21  C1  UNK     1      15.293  65.478   6.508  1.00  0.00     0.070 C 
HETATM   22  N5  UNK     1      16.991  66.677   7.755  1.00  0.00    -0.252 NA
ENDBRANCH   1  16
BRANCH   3  23
HETATM   23  N2  UNK     1      21.538  68.085  10.880  1.00  0.00    -0.378 N 
HETATM   24  H7  UNK     1      22.370  67.515  10.786  1.00  0.00     0.158 HD
HETATM   25  H8  UNK     1      21.678  68.952  11.383  1.00  0.00     0.158 HD
ENDBRANCH   3  23
TORSDOF 3
ENDMDL
