MODEL 1
REMARK VINA RESULT:     -10.9      0.000      0.000
REMARK  2 active torsions:
REMARK  status: ('A' for Active; 'I' for Inactive)
REMARK    1  A    between atoms: C5_6  and  C6_7 
REMARK    2  A    between atoms: C8_11  and  C9_12 
ROOT
HETATM    1  C6  UNK     1      14.791  66.360   6.259  1.00  0.00     0.091 A 
HETATM    2  N1  UNK     1      14.453  66.426   7.588  1.00  0.00    -0.275 N 
HETATM    3  N2  UNK     1      15.011  67.450   8.249  1.00  0.00    -0.186 NA
HETATM    4  C7  UNK     1      15.647  68.121   7.289  1.00  0.00     0.153 A 
HETATM    5  C8  UNK     1      15.573  67.491   6.020  1.00  0.00     0.025 A 
HETATM    6  H4  UNK     1      13.833  65.796   8.089  1.00  0.00     0.189 HD
ENDROOT
BRANCH   5   7
HETATM    7  C9  UNK     1      16.080  67.934   4.716  1.00  0.00    -0.008 A 
HETATM    8  C10 UNK     1      15.176  68.028   3.649  1.00  0.00     0.032 A 
HETATM    9  C11 UNK     1      15.642  68.370   2.399  1.00  0.00     0.118 A 
HETATM   10  N3  UNK     1      16.916  68.702   2.148  1.00  0.00    -0.260 NA
HETATM   11  C12 UNK     1      17.783  68.706   3.173  1.00  0.00     0.067 A 
HETATM   12  C13 UNK     1      19.076  69.132   2.893  1.00  0.00     0.032 A 
HETATM   13  C17 UNK     1      17.442  68.309   4.490  1.00  0.00     0.004 A 
HETATM   14  C14 UNK     1      20.056  69.200   3.876  1.00  0.00     0.002 A 
HETATM   15  C15 UNK     1      19.760  68.794   5.165  1.00  0.00     0.001 A 
HETATM   16  C16 UNK     1      18.476  68.329   5.465  1.00  0.00     0.014 A 
ENDBRANCH   5   7
BRANCH   1  17
HETATM   17  C5  UNK     1      14.242  65.302   5.422  1.00  0.00     0.087 A 
HETATM   18  C4  UNK     1      14.993  64.629   4.465  1.00  0.00     0.034 A 
HETATM   19  C3  UNK     1      14.335  63.777   3.583  1.00  0.00     0.005 A 
HETATM   20  C2  UNK     1      12.961  63.598   3.709  1.00  0.00     0.039 A 
HETATM   21  C1  UNK     1      12.305  64.264   4.732  1.00  0.00     0.103 A 
HETATM   22 BR1  UNK     1      10.434  64.018   4.930  1.00  0.00    -0.029 Br
HETATM   23  N4  UNK     1      12.917  65.105   5.596  1.00  0.00    -0.239 NA
ENDBRANCH   1  17
TORSDOF 2
ENDMDL
MODEL 2
REMARK VINA RESULT:     -10.7      1.118      2.307
REMARK  2 active torsions:
REMARK  status: ('A' for Active; 'I' for Inactive)
REMARK    1  A    between atoms: C5_6  and  C6_7 
REMARK    2  A    between atoms: C8_11  and  C9_12 
ROOT
HETATM    1  C6  UNK     1      14.966  66.583   6.852  1.00  0.00     0.091 A 
HETATM    2  N1  UNK     1      14.144  66.859   7.917  1.00  0.00    -0.275 N 
HETATM    3  N2  UNK     1      14.589  67.838   8.717  1.00  0.00    -0.186 NA
HETATM    4  C7  UNK     1      15.681  68.272   8.089  1.00  0.00     0.153 A 
HETATM    5  C8  UNK     1      15.995  67.523   6.925  1.00  0.00     0.025 A 
HETATM    6  H4  UNK     1      13.259  66.410   8.133  1.00  0.00     0.189 HD
ENDROOT
BRANCH   5   7
HETATM    7  C9  UNK     1      17.063  67.717   5.937  1.00  0.00    -0.008 A 
HETATM    8  C10 UNK     1      18.389  67.507   6.343  1.00  0.00     0.032 A 
HETATM    9  C11 UNK     1      19.412  67.755   5.456  1.00  0.00     0.118 A 
HETATM   10  N3  UNK     1      19.216  68.116   4.181  1.00  0.00    -0.260 NA
HETATM   11  C12 UNK     1      17.953  68.236   3.743  1.00  0.00     0.067 A 
HETATM   12  C13 UNK     1      17.786  68.533   2.396  1.00  0.00     0.032 A 
HETATM   13  C17 UNK     1      16.817  68.074   4.574  1.00  0.00     0.004 A 
HETATM   14  C14 UNK     1      16.526  68.661   1.822  1.00  0.00     0.002 A 
HETATM   15  C15 UNK     1      15.400  68.535   2.614  1.00  0.00     0.001 A 
HETATM   16  C16 UNK     1      15.540  68.270   3.979  1.00  0.00     0.014 A 
ENDBRANCH   5   7
BRANCH   1  17
HETATM   17  C5  UNK     1      14.593  65.548   5.896  1.00  0.00     0.087 A 
HETATM   18  C4  UNK     1      15.500  64.968   5.018  1.00  0.00     0.034 A 
HETATM   19  C3  UNK     1      15.014  64.137   4.014  1.00  0.00     0.005 A 
HETATM   20  C2  UNK     1      13.648  63.884   3.943  1.00  0.00     0.039 A 
HETATM   21  C1  UNK     1      12.825  64.458   4.900  1.00  0.00     0.103 A 
HETATM   22 BR1  UNK     1      10.961  64.111   4.831  1.00  0.00    -0.029 Br
HETATM   23  N4  UNK     1      13.270  65.277   5.880  1.00  0.00    -0.239 NA
ENDBRANCH   1  17
TORSDOF 2
ENDMDL
MODEL 3
REMARK VINA RESULT:      -9.5      2.655      4.309
REMARK  2 active torsions:
REMARK  status: ('A' for Active; 'I' for Inactive)
REMARK    1  A    between atoms: C5_6  and  C6_7 
REMARK    2  A    between atoms: C8_11  and  C9_12 
ROOT
HETATM    1  C6  UNK     1      15.602  66.559   5.825  1.00  0.00     0.091 A 
HETATM    2  N1  UNK     1      15.114  65.321   6.165  1.00  0.00    -0.275 N 
HETATM    3  N2  UNK     1      14.728  64.574   5.120  1.00  0.00    -0.186 NA
HETATM    4  C7  UNK     1      15.073  65.320   4.070  1.00  0.00     0.153 A 
HETATM    5  C8  UNK     1      15.607  66.584   4.430  1.00  0.00     0.025 A 
HETATM    6  H4  UNK     1      15.035  64.935   7.101  1.00  0.00     0.189 HD
ENDROOT
BRANCH   5   7
HETATM    7  C9  UNK     1      16.154  67.652   3.584  1.00  0.00    -0.008 A 
HETATM    8  C10 UNK     1      15.301  68.268   2.658  1.00  0.00     0.032 A 
HETATM    9  C11 UNK     1      15.809  69.220   1.803  1.00  0.00     0.118 A 
HETATM   10  N3  UNK     1      17.073  69.661   1.853  1.00  0.00    -0.260 NA
HETATM   11  C12 UNK     1      17.886  69.151   2.792  1.00  0.00     0.067 A 
HETATM   12  C13 UNK     1      19.165  69.688   2.866  1.00  0.00     0.032 A 
HETATM   13  C17 UNK     1      17.502  68.120   3.684  1.00  0.00     0.004 A 
HETATM   14  C14 UNK     1      20.090  69.256   3.811  1.00  0.00     0.002 A 
HETATM   15  C15 UNK     1      19.752  68.233   4.678  1.00  0.00     0.001 A 
HETATM   16  C16 UNK     1      18.483  67.652   4.601  1.00  0.00     0.014 A 
ENDBRANCH   5   7
BRANCH   1  17
HETATM   17  C5  UNK     1      16.068  67.466   6.866  1.00  0.00     0.087 A 
HETATM   18  C4  UNK     1      15.449  68.677   7.146  1.00  0.00     0.034 A 
HETATM   19  C3  UNK     1      16.080  69.560   8.016  1.00  0.00     0.005 A 
HETATM   20  C2  UNK     1      17.286  69.191   8.603  1.00  0.00     0.039 A 
HETATM   21  C1  UNK     1      17.799  67.937   8.311  1.00  0.00     0.103 A 
HETATM   22 BR1  UNK     1      19.434  67.408   9.116  1.00  0.00    -0.029 Br
HETATM   23  N4  UNK     1      17.212  67.064   7.462  1.00  0.00    -0.239 NA
ENDBRANCH   1  17
TORSDOF 2
ENDMDL
MODEL 4
REMARK VINA RESULT:      -8.9      3.192      6.409
REMARK  2 active torsions:
REMARK  status: ('A' for Active; 'I' for Inactive)
REMARK    1  A    between atoms: C5_6  and  C6_7 
REMARK    2  A    between atoms: C8_11  and  C9_12 
ROOT
HETATM    1  C6  UNK     1      17.634  68.406   3.714  1.00  0.00     0.091 A 
HETATM    2  N1  UNK     1      17.757  69.206   2.604  1.00  0.00    -0.275 N 
HETATM    3  N2  UNK     1      16.649  69.280   1.852  1.00  0.00    -0.186 NA
HETATM    4  C7  UNK     1      15.757  68.585   2.557  1.00  0.00     0.153 A 
HETATM    5  C8  UNK     1      16.302  67.990   3.725  1.00  0.00     0.025 A 
HETATM    6  H4  UNK     1      18.579  69.732   2.323  1.00  0.00     0.189 HD
ENDROOT
BRANCH   5   7
HETATM    7  C9  UNK     1      15.645  67.212   4.782  1.00  0.00    -0.008 A 
HETATM    8  C10 UNK     1      15.168  65.932   4.465  1.00  0.00     0.032 A 
HETATM    9  C11 UNK     1      14.483  65.213   5.419  1.00  0.00     0.118 A 
HETATM   10  N3  UNK     1      14.308  65.633   6.679  1.00  0.00    -0.260 NA
HETATM   11  C12 UNK     1      14.834  66.817   7.031  1.00  0.00     0.067 A 
HETATM   12  C13 UNK     1      14.702  67.185   8.365  1.00  0.00     0.032 A 
HETATM   13  C17 UNK     1      15.500  67.679   6.126  1.00  0.00     0.004 A 
HETATM   14  C14 UNK     1      15.224  68.377   8.853  1.00  0.00     0.002 A 
HETATM   15  C15 UNK     1      15.857  69.251   7.988  1.00  0.00     0.001 A 
HETATM   16  C16 UNK     1      15.972  68.920   6.634  1.00  0.00     0.014 A 
ENDBRANCH   5   7
BRANCH   1  17
HETATM   17  C5  UNK     1      18.761  68.249   4.624  1.00  0.00     0.087 A 
HETATM   18  C4  UNK     1      18.746  67.373   5.702  1.00  0.00     0.034 A 
HETATM   19  C3  UNK     1      19.785  67.437   6.625  1.00  0.00     0.005 A 
HETATM   20  C2  UNK     1      20.819  68.345   6.422  1.00  0.00     0.039 A 
HETATM   21  C1  UNK     1      20.781  69.137   5.285  1.00  0.00     0.103 A 
HETATM   22 BR1  UNK     1      22.191  70.369   4.982  1.00  0.00    -0.029 Br
HETATM   23  N4  UNK     1      19.779  69.103   4.378  1.00  0.00    -0.239 NA
ENDBRANCH   1  17
TORSDOF 2
ENDMDL
MODEL 5
REMARK VINA RESULT:      -8.8      3.614      6.837
REMARK  2 active torsions:
REMARK  status: ('A' for Active; 'I' for Inactive)
REMARK    1  A    between atoms: C5_6  and  C6_7 
REMARK    2  A    between atoms: C8_11  and  C9_12 
ROOT
HETATM    1  C6  UNK     1      18.725  68.435   5.076  1.00  0.00     0.091 A 
HETATM    2  N1  UNK     1      19.281  69.131   4.030  1.00  0.00    -0.275 N 
HETATM    3  N2  UNK     1      18.439  69.365   3.013  1.00  0.00    -0.186 NA
HETATM    4  C7  UNK     1      17.278  68.892   3.465  1.00  0.00     0.153 A 
HETATM    5  C8  UNK     1      17.380  68.276   4.740  1.00  0.00     0.025 A 
HETATM    6  H4  UNK     1      20.234  69.478   3.970  1.00  0.00     0.189 HD
ENDROOT
BRANCH   5   7
HETATM    7  C9  UNK     1      16.336  67.697   5.594  1.00  0.00    -0.008 A 
HETATM    8  C10 UNK     1      16.040  68.337   6.806  1.00  0.00     0.032 A 
HETATM    9  C11 UNK     1      15.118  67.772   7.658  1.00  0.00     0.118 A 
HETATM   10  N3  UNK     1      14.413  66.671   7.363  1.00  0.00    -0.260 NA
HETATM   11  C12 UNK     1      14.615  66.091   6.169  1.00  0.00     0.067 A 
HETATM   12  C13 UNK     1      13.811  65.000   5.864  1.00  0.00     0.032 A 
HETATM   13  C17 UNK     1      15.582  66.536   5.235  1.00  0.00     0.004 A 
HETATM   14  C14 UNK     1      13.912  64.329   4.650  1.00  0.00     0.002 A 
HETATM   15  C15 UNK     1      14.865  64.724   3.730  1.00  0.00     0.001 A 
HETATM   16  C16 UNK     1      15.709  65.798   4.026  1.00  0.00     0.014 A 
ENDBRANCH   5   7
BRANCH   1  17
HETATM   17  C5  UNK     1      19.529  68.126   6.250  1.00  0.00     0.087 A 
HETATM   18  C4  UNK     1      19.268  67.043   7.080  1.00  0.00     0.034 A 
HETATM   19  C3  UNK     1      19.964  66.943   8.281  1.00  0.00     0.005 A 
HETATM   20  C2  UNK     1      20.919  67.905   8.595  1.00  0.00     0.039 A 
HETATM   21  C1  UNK     1      21.155  68.917   7.677  1.00  0.00     0.103 A 
HETATM   22 BR1  UNK     1      22.466  70.228   8.079  1.00  0.00    -0.029 Br
HETATM   23  N4  UNK     1      20.487  69.043   6.509  1.00  0.00    -0.239 NA
ENDBRANCH   1  17
TORSDOF 2
ENDMDL
MODEL 6
REMARK VINA RESULT:      -8.7      2.282      4.193
REMARK  2 active torsions:
REMARK  status: ('A' for Active; 'I' for Inactive)
REMARK    1  A    between atoms: C5_6  and  C6_7 
REMARK    2  A    between atoms: C8_11  and  C9_12 
ROOT
HETATM    1  C6  UNK     1      16.116  68.158   3.289  1.00  0.00     0.091 A 
HETATM    2  N1  UNK     1      15.305  68.416   2.210  1.00  0.00    -0.275 N 
HETATM    3  N2  UNK     1      15.767  69.370   1.389  1.00  0.00    -0.186 NA
HETATM    4  C7  UNK     1      16.961  69.662   1.904  1.00  0.00     0.153 A 
HETATM    5  C8  UNK     1      17.242  68.961   3.105  1.00  0.00     0.025 A 
HETATM    6  H4  UNK     1      14.428  67.955   1.986  1.00  0.00     0.189 HD
ENDROOT
BRANCH   5   7
HETATM    7  C9  UNK     1      18.455  68.956   3.933  1.00  0.00    -0.008 A 
HETATM    8  C10 UNK     1      18.329  68.635   5.292  1.00  0.00     0.032 A 
HETATM    9  C11 UNK     1      19.440  68.696   6.103  1.00  0.00     0.118 A 
HETATM   10  N3  UNK     1      20.672  68.972   5.654  1.00  0.00    -0.260 NA
HETATM   11  C12 UNK     1      20.832  69.195   4.340  1.00  0.00     0.067 A 
HETATM   12  C13 UNK     1      22.133  69.399   3.897  1.00  0.00     0.032 A 
HETATM   13  C17 UNK     1      19.760  69.227   3.414  1.00  0.00     0.004 A 
HETATM   14  C14 UNK     1      22.427  69.619   2.556  1.00  0.00     0.002 A 
HETATM   15  C15 UNK     1      21.399  69.682   1.634  1.00  0.00     0.001 A 
HETATM   16  C16 UNK     1      20.078  69.514   2.058  1.00  0.00     0.014 A 
ENDBRANCH   5   7
BRANCH   1  17
HETATM   17  C5  UNK     1      15.737  67.134   4.253  1.00  0.00     0.087 A 
HETATM   18  C4  UNK     1      15.386  65.841   3.884  1.00  0.00     0.034 A 
HETATM   19  C3  UNK     1      14.850  64.997   4.851  1.00  0.00     0.005 A 
HETATM   20  C2  UNK     1      14.717  65.457   6.157  1.00  0.00     0.039 A 
HETATM   21  C1  UNK     1      15.151  66.742   6.446  1.00  0.00     0.103 A 
HETATM   22 BR1  UNK     1      14.994  67.381   8.225  1.00  0.00    -0.029 Br
HETATM   23  N4  UNK     1      15.665  67.586   5.524  1.00  0.00    -0.239 NA
ENDBRANCH   1  17
TORSDOF 2
ENDMDL
MODEL 7
REMARK VINA RESULT:      -8.2      2.042      4.389
REMARK  2 active torsions:
REMARK  status: ('A' for Active; 'I' for Inactive)
REMARK    1  A    between atoms: C5_6  and  C6_7 
REMARK    2  A    between atoms: C8_11  and  C9_12 
ROOT
HETATM    1  C6  UNK     1      16.284  67.817   4.047  1.00  0.00     0.091 A 
HETATM    2  N1  UNK     1      16.039  68.314   2.790  1.00  0.00    -0.275 N 
HETATM    3  N2  UNK     1      16.979  69.155   2.336  1.00  0.00    -0.186 NA
HETATM    4  C7  UNK     1      17.906  69.118   3.293  1.00  0.00     0.153 A 
HETATM    5  C8  UNK     1      17.535  68.320   4.406  1.00  0.00     0.025 A 
HETATM    6  H4  UNK     1      15.244  68.097   2.196  1.00  0.00     0.189 HD
ENDROOT
BRANCH   5   7
HETATM    7  C9  UNK     1      18.292  67.978   5.616  1.00  0.00    -0.008 A 
HETATM    8  C10 UNK     1      19.548  67.374   5.465  1.00  0.00     0.032 A 
HETATM    9  C11 UNK     1      20.244  66.977   6.585  1.00  0.00     0.118 A 
HETATM   10  N3  UNK     1      19.825  67.205   7.837  1.00  0.00    -0.260 NA
HETATM   11  C12 UNK     1      18.667  67.862   8.008  1.00  0.00     0.067 A 
HETATM   12  C13 UNK     1      18.303  68.152   9.317  1.00  0.00     0.032 A 
HETATM   13  C17 UNK     1      17.828  68.263   6.939  1.00  0.00     0.004 A 
HETATM   14  C14 UNK     1      17.137  68.847   9.619  1.00  0.00     0.002 A 
HETATM   15  C15 UNK     1      16.285  69.227   8.598  1.00  0.00     0.001 A 
HETATM   16  C16 UNK     1      16.611  68.917   7.275  1.00  0.00     0.014 A 
ENDBRANCH   5   7
BRANCH   1  17
HETATM   17  C5  UNK     1      15.346  66.882   4.653  1.00  0.00     0.087 A 
HETATM   18  C4  UNK     1      15.042  66.887   6.009  1.00  0.00     0.034 A 
HETATM   19  C3  UNK     1      14.293  65.835   6.526  1.00  0.00     0.005 A 
HETATM   20  C2  UNK     1      13.842  64.836   5.669  1.00  0.00     0.039 A 
HETATM   21  C1  UNK     1      14.142  64.946   4.320  1.00  0.00     0.103 A 
HETATM   22 BR1  UNK     1      13.521  63.602   3.134  1.00  0.00    -0.029 Br
HETATM   23  N4  UNK     1      14.877  65.951   3.793  1.00  0.00    -0.239 NA
ENDBRANCH   1  17
TORSDOF 2
ENDMDL
MODEL 8
REMARK VINA RESULT:      -8.0      3.352      5.504
REMARK  2 active torsions:
REMARK  status: ('A' for Active; 'I' for Inactive)
REMARK    1  A    between atoms: C5_6  and  C6_7 
REMARK    2  A    between atoms: C8_11  and  C9_12 
ROOT
HETATM    1  C6  UNK     1      16.832  67.025   7.813  1.00  0.00     0.091 A 
HETATM    2  N1  UNK     1      15.821  66.227   8.290  1.00  0.00    -0.275 N 
HETATM    3  N2  UNK     1      14.941  65.835   7.357  1.00  0.00    -0.186 NA
HETATM    4  C7  UNK     1      15.462  66.315   6.228  1.00  0.00     0.153 A 
HETATM    5  C8  UNK     1      16.634  67.088   6.434  1.00  0.00     0.025 A 
HETATM    6  H4  UNK     1      15.696  65.913   9.248  1.00  0.00     0.189 HD
ENDROOT
BRANCH   5   7
HETATM    7  C9  UNK     1      17.525  67.727   5.458  1.00  0.00    -0.008 A 
HETATM    8  C10 UNK     1      18.884  67.850   5.781  1.00  0.00     0.032 A 
HETATM    9  C11 UNK     1      19.725  68.512   4.915  1.00  0.00     0.118 A 
HETATM   10  N3  UNK     1      19.338  68.986   3.723  1.00  0.00    -0.260 NA
HETATM   11  C12 UNK     1      18.061  68.801   3.352  1.00  0.00     0.067 A 
HETATM   12  C13 UNK     1      17.714  69.233   2.078  1.00  0.00     0.032 A 
HETATM   13  C17 UNK     1      17.084  68.196   4.181  1.00  0.00     0.004 A 
HETATM   14  C14 UNK     1      16.428  69.077   1.574  1.00  0.00     0.002 A 
HETATM   15  C15 UNK     1      15.446  68.515   2.370  1.00  0.00     0.001 A 
HETATM   16  C16 UNK     1      15.761  68.102   3.668  1.00  0.00     0.014 A 
ENDBRANCH   5   7
BRANCH   1  17
HETATM   17  C5  UNK     1      17.863  67.510   8.721  1.00  0.00     0.087 A 
HETATM   18  C4  UNK     1      19.221  67.420   8.440  1.00  0.00     0.034 A 
HETATM   19  C3  UNK     1      20.130  67.726   9.447  1.00  0.00     0.005 A 
HETATM   20  C2  UNK     1      19.655  68.146  10.686  1.00  0.00     0.039 A 
HETATM   21  C1  UNK     1      18.285  68.264  10.856  1.00  0.00     0.103 A 
HETATM   22 BR1  UNK     1      17.619  68.852  12.533  1.00  0.00    -0.029 Br
HETATM   23  N4  UNK     1      17.380  67.964   9.898  1.00  0.00    -0.239 NA
ENDBRANCH   1  17
TORSDOF 2
ENDMDL
