REMARK  3 active torsions:
REMARK  status: ('A' for Active; 'I' for Inactive)
REMARK    1  A    between atoms: C6_6  and  C7_8 
REMARK    2  A    between atoms: C8_10  and  N4_18 
REMARK    3  A    between atoms: N4_18  and  C15_19 
ROOT
HETATM    1  C7  UNK     1      -1.610   2.623   0.032  1.00  0.00     0.181 A 
HETATM    2  N2  UNK     1      -1.441   3.458  -1.003  1.00  0.00    -0.208 NA
HETATM    3  C8  UNK     1      -2.112   4.621  -1.012  1.00  0.00     0.143 A 
HETATM    4  C9  UNK     1      -2.982   4.977   0.035  1.00  0.00     0.039 A 
HETATM    5  C10 UNK     1      -3.777   6.153   0.095  1.00  0.00     0.018 A 
HETATM    6  C11 UNK     1      -4.588   6.414   1.199  1.00  0.00     0.001 A 
HETATM    7  C12 UNK     1      -4.621   5.508   2.251  1.00  0.00     0.002 A 
HETATM    8  C13 UNK     1      -3.858   4.342   2.181  1.00  0.00     0.032 A 
HETATM    9  C14 UNK     1      -3.050   4.056   1.089  1.00  0.00     0.073 A 
HETATM   10  N3  UNK     1      -2.384   2.902   1.096  1.00  0.00    -0.226 NA
ENDROOT
BRANCH   3  11
HETATM   11  N4  UNK     1      -1.940   5.505  -2.117  1.00  0.00    -0.340 N 
HETATM   12  H11 UNK     1      -1.733   6.434  -1.766  1.00  0.00     0.167 HD
BRANCH  11  13
HETATM   13  C15 UNK     1      -1.242   5.243  -3.323  1.00  0.00     0.036 A 
HETATM   14  C16 UNK     1      -1.089   3.959  -3.847  1.00  0.00     0.048 A 
HETATM   15  C17 UNK     1      -0.415   3.786  -5.046  1.00  0.00     0.118 A 
HETATM   16  N5  UNK     1       0.074   4.803  -5.785  1.00  0.00    -0.273 NA
HETATM   17  C18 UNK     1      -0.130   6.043  -5.297  1.00  0.00     0.118 A 
HETATM   18  C19 UNK     1      -0.780   6.311  -4.100  1.00  0.00     0.048 A 
ENDBRANCH  11  13
ENDBRANCH   3  11
BRANCH   1  19
HETATM   19  C6  UNK     1      -0.940   1.297  -0.005  1.00  0.00     0.104 A 
HETATM   20  C5  UNK     1      -1.154   0.352   1.001  1.00  0.00     0.036 A 
HETATM   21  C4  UNK     1      -0.518  -0.883   0.933  1.00  0.00     0.004 A 
HETATM   22  C3  UNK     1       0.323  -1.156  -0.137  1.00  0.00     0.027 A 
HETATM   23  C2  UNK     1       0.499  -0.183  -1.113  1.00  0.00     0.031 A 
HETATM   24  C1  UNK     1       1.407  -0.428  -2.281  1.00  0.00     0.070 C 
HETATM   25  N1  UNK     1      -0.119   1.022  -1.062  1.00  0.00    -0.250 NA
ENDBRANCH   1  19
TORSDOF 3
