REMARK  3 active torsions:
REMARK  status: ('A' for Active; 'I' for Inactive)
REMARK    1  A    between atoms: C6_6  and  C8_8 
REMARK    2  A    between atoms: C10_10  and  N5_24 
REMARK    3  A    between atoms: C12_11  and  N5_24 
ROOT
HETATM    1  C8  855 A 857      13.658  66.047   5.743  1.00  0.00     0.181 A 
HETATM    2  N9  855 A 857      14.687  66.670   5.138  1.00  0.00    -0.208 NA
HETATM    3  C10 855 A 857      15.366  67.628   5.800  1.00  0.00     0.143 A 
HETATM    4  C18 855 A 857      15.039  68.008   7.124  1.00  0.00     0.039 A 
HETATM    5  C19 855 A 857      15.696  69.021   7.916  1.00  0.00     0.018 A 
HETATM    6  C20 855 A 857      15.264  69.300   9.236  1.00  0.00     0.001 A 
HETATM    7  C21 855 A 857      14.179  68.579   9.783  1.00  0.00     0.002 A 
HETATM    8  C22 855 A 857      13.521  67.580   9.007  1.00  0.00     0.032 A 
HETATM    9  C23 855 A 857      13.929  67.282   7.688  1.00  0.00     0.073 A 
HETATM   10  N24 855 A 857      13.252  66.322   7.010  1.00  0.00    -0.226 NA
ENDROOT
BRANCH   3  11
HETATM   11  N5  855 A 857      16.417  68.225   5.093  1.00  0.00    -0.340 N 
HETATM   12  H15 855 A 857      17.132  68.581   5.668  1.00  0.00     0.167 HD
BRANCH  11  13
HETATM   13  C12 855 A 857      16.648  68.414   3.718  1.00  0.00     0.036 A 
HETATM   14  C13 855 A 857      17.895  68.919   3.289  1.00  0.00     0.048 A 
HETATM   15  C14 855 A 857      18.116  69.105   1.915  1.00  0.00     0.118 A 
HETATM   16  N15 855 A 857      17.172  68.820   0.950  1.00  0.00    -0.273 NA
HETATM   17  C16 855 A 857      15.959  68.326   1.372  1.00  0.00     0.118 A 
HETATM   18  C17 855 A 857      15.653  68.108   2.725  1.00  0.00     0.048 A 
ENDBRANCH  11  13
ENDBRANCH   3  11
BRANCH   1  19
HETATM   19  C6  855 A 857      12.944  65.040   4.953  1.00  0.00     0.104 A 
HETATM   20  C5  855 A 857      13.585  64.237   3.973  1.00  0.00     0.036 A 
HETATM   21  C4  855 A 857      12.800  63.308   3.244  1.00  0.00     0.004 A 
HETATM   22  C3  855 A 857      11.407  63.202   3.494  1.00  0.00     0.027 A 
HETATM   23  C2  855 A 857      10.836  64.028   4.480  1.00  0.00     0.031 A 
HETATM   24  C1  855 A 857       9.373  63.963   4.781  1.00  0.00     0.070 C 
HETATM   25  N7  855 A 857      11.582  64.929   5.195  1.00  0.00    -0.250 NA
ENDBRANCH   1  19
TORSDOF 3
